<routes>
             <vType accel="1.0" decel="4.5" id="standard_car" length="5.0" minGap="2.5" maxSpeed="25" sigma="0.5" />
                    
    <trip id="0" depart="6.0" from="ce1" to="ce2" type="standard_car" departLane="random" departSpeed="10" />
    <trip id="1" depart="7.0" from="ce1" to="ce7" type="standard_car" departLane="random" departSpeed="10" />
    <trip id="2" depart="25.0" from="ce1" to="ce7" type="standard_car" departLane="random" departSpeed="10" />
    <trip id="3" depart="32.0" from="ce1" to="ce2" type="standard_car" departLane="random" departSpeed="10" />
    <trip id="4" depart="33.0" from="ce3" to="ce7" type="standard_car" departLane="random" departSpeed="10" />
    <trip id="5" depart="36.0" from="ce8" to="ce4" type="standard_car" departLane="random" departSpeed="10" />
    <trip id="6" depart="39.0" from="ce6" to="ce7" type="standard_car" departLane="random" departSpeed="10" />
    <trip id="7" depart="43.0" from="ce1" to="ce7" type="standard_car" departLane="random" departSpeed="10" />
    <trip id="8" depart="46.0" from="ce6" to="ce7" type="standard_car" departLane="random" departSpeed="10" />
    <trip id="9" depart="52.0" from="ce1" to="ce5" type="standard_car" departLane="random" departSpeed="10" />
    <trip id="10" depart="54.0" from="ce1" to="ce7" type="standard_car" departLane="random" departSpeed="10" />
    <trip id="11" depart="55.0" from="ce8" to="ce4" type="standard_car" departLane="random" departSpeed="10" />
    <trip id="12" depart="56.0" from="ce6" to="ce5" type="standard_car" departLane="random" departSpeed="10" />
    <trip id="13" depart="58.0" from="ce6" to="ce4" type="standard_car" departLane="random" departSpeed="10" />
    <trip id="14" depart="58.0" from="ce1" to="ce7" type="standard_car" departLane="random" departSpeed="10" />
    <trip id="15" depart="68.0" from="ce8" to="ce5" type="standard_car" departLane="random" departSpeed="10" />
    <trip id="16" depart="69.0" from="ce1" to="ce4" type="standard_car" departLane="random" departSpeed="10" />
    <trip id="17" depart="73.0" from="ce1" to="ce5" type="standard_car" departLane="random" departSpeed="10" />
    <trip id="18" depart="75.0" from="ce1" to="ce5" type="standard_car" departLane="random" departSpeed="10" />
    <trip id="19" depart="85.0" from="ce6" to="ce5" type="standard_car" departLane="random" departSpeed="10" />
    <trip id="20" depart="93.0" from="ce1" to="ce2" type="standard_car" departLane="random" departSpeed="10" />
    <trip id="21" depart="94.0" from="ce6" to="ce2" type="standard_car" departLane="random" departSpeed="10" />
    <trip id="22" depart="101.0" from="ce3" to="ce5" type="standard_car" departLane="random" departSpeed="10" />
    <trip id="23" depart="114.0" from="ce8" to="ce7" type="standard_car" departLane="random" departSpeed="10" />
    <trip id="24" depart="124.0" from="ce6" to="ce5" type="standard_car" departLane="random" departSpeed="10" />
    <trip id="25" depart="126.0" from="ce3" to="ce2" type="standard_car" departLane="random" departSpeed="10" />
    <trip id="26" depart="139.0" from="ce6" to="ce2" type="standard_car" departLane="random" departSpeed="10" />
    <trip id="27" depart="146.0" from="ce8" to="ce4" type="standard_car" departLane="random" departSpeed="10" />
    <trip id="28" depart="154.0" from="ce1" to="ce5" type="standard_car" departLane="random" departSpeed="10" />
    <trip id="29" depart="158.0" from="ce6" to="ce2" type="standard_car" departLane="random" departSpeed="10" />
    <trip id="30" depart="165.0" from="ce3" to="ce5" type="standard_car" departLane="random" departSpeed="10" />
    <trip id="31" depart="168.0" from="ce1" to="ce5" type="standard_car" departLane="random" departSpeed="10" />
    <trip id="32" depart="170.0" from="ce1" to="ce5" type="standard_car" departLane="random" departSpeed="10" />
    <trip id="33" depart="174.0" from="ce1" to="ce7" type="standard_car" departLane="random" departSpeed="10" />
    <trip id="34" depart="186.0" from="ce3" to="ce4" type="standard_car" departLane="random" departSpeed="10" />
    <trip id="35" depart="188.0" from="ce1" to="ce5" type="standard_car" departLane="random" departSpeed="10" />
    <trip id="36" depart="196.0" from="ce6" to="ce7" type="standard_car" departLane="random" departSpeed="10" />
    <trip id="37" depart="207.0" from="ce8" to="ce4" type="standard_car" departLane="random" departSpeed="10" />
    <trip id="38" depart="216.0" from="ce1" to="ce7" type="standard_car" departLane="random" departSpeed="10" />
    <trip id="39" depart="235.0" from="ce6" to="ce5" type="standard_car" departLane="random" departSpeed="10" />
    <trip id="40" depart="240.0" from="ce1" to="ce5" type="standard_car" departLane="random" departSpeed="10" />
    <trip id="41" depart="242.0" from="ce1" to="ce5" type="standard_car" departLane="random" departSpeed="10" />
    <trip id="42" depart="247.0" from="ce6" to="ce4" type="standard_car" departLane="random" departSpeed="10" />
    <trip id="43" depart="247.0" from="ce3" to="ce5" type="standard_car" departLane="random" departSpeed="10" />
    <trip id="44" depart="251.0" from="ce6" to="ce2" type="standard_car" departLane="random" departSpeed="10" />
    <trip id="45" depart="253.0" from="ce1" to="ce5" type="standard_car" departLane="random" departSpeed="10" />
    <trip id="46" depart="257.0" from="ce6" to="ce2" type="standard_car" departLane="random" departSpeed="10" />
    <trip id="47" depart="262.0" from="ce1" to="ce4" type="standard_car" departLane="random" departSpeed="10" />
    <trip id="48" depart="263.0" from="ce3" to="ce5" type="standard_car" departLane="random" departSpeed="10" />
    <trip id="49" depart="277.0" from="ce1" to="ce5" type="standard_car" departLane="random" departSpeed="10" />
    <trip id="50" depart="282.0" from="ce1" to="ce4" type="standard_car" departLane="random" departSpeed="10" />
    <trip id="51" depart="295.0" from="ce1" to="ce7" type="standard_car" departLane="random" departSpeed="10" />
    <trip id="52" depart="296.0" from="ce1" to="ce5" type="standard_car" departLane="random" departSpeed="10" />
    <trip id="53" depart="303.0" from="ce1" to="ce7" type="standard_car" departLane="random" departSpeed="10" />
    <trip id="54" depart="306.0" from="ce6" to="ce7" type="standard_car" departLane="random" departSpeed="10" />
    <trip id="55" depart="309.0" from="ce8" to="ce5" type="standard_car" departLane="random" departSpeed="10" />
    <trip id="56" depart="309.0" from="ce1" to="ce5" type="standard_car" departLane="random" departSpeed="10" />
    <trip id="57" depart="314.0" from="ce8" to="ce2" type="standard_car" departLane="random" departSpeed="10" />
    <trip id="58" depart="321.0" from="ce1" to="ce5" type="standard_car" departLane="random" departSpeed="10" />
    <trip id="59" depart="321.0" from="ce1" to="ce4" type="standard_car" departLane="random" departSpeed="10" />
    <trip id="60" depart="329.0" from="ce1" to="ce7" type="standard_car" departLane="random" departSpeed="10" />
    <trip id="61" depart="335.0" from="ce8" to="ce4" type="standard_car" departLane="random" departSpeed="10" />
    <trip id="62" depart="336.0" from="ce6" to="ce2" type="standard_car" departLane="random" departSpeed="10" />
    <trip id="63" depart="338.0" from="ce1" to="ce4" type="standard_car" departLane="random" departSpeed="10" />
    <trip id="64" depart="342.0" from="ce3" to="ce2" type="standard_car" departLane="random" departSpeed="10" />
    <trip id="65" depart="342.0" from="ce1" to="ce7" type="standard_car" departLane="random" departSpeed="10" />
    <trip id="66" depart="344.0" from="ce1" to="ce4" type="standard_car" departLane="random" departSpeed="10" />
    <trip id="67" depart="355.0" from="ce1" to="ce4" type="standard_car" departLane="random" departSpeed="10" />
    <trip id="68" depart="363.0" from="ce6" to="ce2" type="standard_car" departLane="random" departSpeed="10" />
    <trip id="69" depart="368.0" from="ce1" to="ce4" type="standard_car" departLane="random" departSpeed="10" />
    <trip id="70" depart="382.0" from="ce1" to="ce2" type="standard_car" departLane="random" departSpeed="10" />
    <trip id="71" depart="388.0" from="ce1" to="ce7" type="standard_car" departLane="random" departSpeed="10" />
    <trip id="72" depart="390.0" from="ce1" to="ce2" type="standard_car" departLane="random" departSpeed="10" />
    <trip id="73" depart="409.0" from="ce1" to="ce2" type="standard_car" departLane="random" departSpeed="10" />
    <trip id="74" depart="417.0" from="ce6" to="ce5" type="standard_car" departLane="random" departSpeed="10" />
    <trip id="75" depart="422.0" from="ce1" to="ce7" type="standard_car" departLane="random" departSpeed="10" />
    <trip id="76" depart="437.0" from="ce6" to="ce7" type="standard_car" departLane="random" departSpeed="10" />
    <trip id="77" depart="438.0" from="ce6" to="ce7" type="standard_car" departLane="random" departSpeed="10" />
    <trip id="78" depart="442.0" from="ce1" to="ce7" type="standard_car" departLane="random" departSpeed="10" />
    <trip id="79" depart="465.0" from="ce1" to="ce7" type="standard_car" departLane="random" departSpeed="10" />
    <trip id="80" depart="474.0" from="ce6" to="ce2" type="standard_car" departLane="random" departSpeed="10" />
    <trip id="81" depart="474.0" from="ce1" to="ce7" type="standard_car" departLane="random" departSpeed="10" />
    <trip id="82" depart="479.0" from="ce1" to="ce4" type="standard_car" departLane="random" departSpeed="10" />
    <trip id="83" depart="485.0" from="ce1" to="ce5" type="standard_car" departLane="random" departSpeed="10" />
    <trip id="84" depart="495.0" from="ce3" to="ce5" type="standard_car" departLane="random" departSpeed="10" />
    <trip id="85" depart="512.0" from="ce3" to="ce4" type="standard_car" departLane="random" departSpeed="10" />
    <trip id="86" depart="514.0" from="ce1" to="ce7" type="standard_car" departLane="random" departSpeed="10" />
    <trip id="87" depart="514.0" from="ce8" to="ce2" type="standard_car" departLane="random" departSpeed="10" />
    <trip id="88" depart="527.0" from="ce6" to="ce2" type="standard_car" departLane="random" departSpeed="10" />
    <trip id="89" depart="540.0" from="ce1" to="ce5" type="standard_car" departLane="random" departSpeed="10" />
    <trip id="90" depart="565.0" from="ce1" to="ce7" type="standard_car" departLane="random" departSpeed="10" />
    <trip id="91" depart="565.0" from="ce1" to="ce4" type="standard_car" departLane="random" departSpeed="10" />
    <trip id="92" depart="575.0" from="ce6" to="ce7" type="standard_car" departLane="random" departSpeed="10" />
    <trip id="93" depart="599.0" from="ce1" to="ce5" type="standard_car" departLane="random" departSpeed="10" />
    <trip id="94" depart="600.0" from="ce6" to="ce7" type="standard_car" departLane="random" departSpeed="10" />
    <trip id="95" depart="605.0" from="ce6" to="ce2" type="standard_car" departLane="random" departSpeed="10" />
    <trip id="96" depart="610.0" from="ce1" to="ce5" type="standard_car" departLane="random" departSpeed="10" />
    <trip id="97" depart="613.0" from="ce8" to="ce4" type="standard_car" departLane="random" departSpeed="10" />
    <trip id="98" depart="628.0" from="ce3" to="ce2" type="standard_car" departLane="random" departSpeed="10" />
    <trip id="99" depart="639.0" from="ce6" to="ce2" type="standard_car" departLane="random" departSpeed="10" />
    <trip id="100" depart="644.0" from="ce6" to="ce7" type="standard_car" departLane="random" departSpeed="10" />
    <trip id="101" depart="659.0" from="ce8" to="ce4" type="standard_car" departLane="random" departSpeed="10" />
    <trip id="102" depart="659.0" from="ce1" to="ce5" type="standard_car" departLane="random" departSpeed="10" />
    <trip id="103" depart="662.0" from="ce6" to="ce7" type="standard_car" departLane="random" departSpeed="10" />
    <trip id="104" depart="675.0" from="ce1" to="ce4" type="standard_car" departLane="random" departSpeed="10" />
    <trip id="105" depart="680.0" from="ce1" to="ce4" type="standard_car" departLane="random" departSpeed="10" />
    <trip id="106" depart="693.0" from="ce1" to="ce4" type="standard_car" departLane="random" departSpeed="10" />
    <trip id="107" depart="695.0" from="ce1" to="ce7" type="standard_car" departLane="random" departSpeed="10" />
    <trip id="108" depart="720.0" from="ce8" to="ce2" type="standard_car" departLane="random" departSpeed="10" />
    <trip id="109" depart="737.0" from="ce8" to="ce7" type="standard_car" departLane="random" departSpeed="10" />
    <trip id="110" depart="748.0" from="ce3" to="ce7" type="standard_car" departLane="random" departSpeed="10" />
    <trip id="111" depart="753.0" from="ce1" to="ce4" type="standard_car" departLane="random" departSpeed="10" />
    <trip id="112" depart="754.0" from="ce1" to="ce7" type="standard_car" departLane="random" departSpeed="10" />
    <trip id="113" depart="755.0" from="ce6" to="ce2" type="standard_car" departLane="random" departSpeed="10" />
    <trip id="114" depart="763.0" from="ce6" to="ce5" type="standard_car" departLane="random" departSpeed="10" />
    <trip id="115" depart="771.0" from="ce1" to="ce2" type="standard_car" departLane="random" departSpeed="10" />
    <trip id="116" depart="776.0" from="ce1" to="ce4" type="standard_car" departLane="random" departSpeed="10" />
    <trip id="117" depart="780.0" from="ce6" to="ce7" type="standard_car" departLane="random" departSpeed="10" />
    <trip id="118" depart="782.0" from="ce6" to="ce5" type="standard_car" departLane="random" departSpeed="10" />
    <trip id="119" depart="823.0" from="ce8" to="ce2" type="standard_car" departLane="random" departSpeed="10" />
    <trip id="120" depart="826.0" from="ce6" to="ce2" type="standard_car" departLane="random" departSpeed="10" />
    <trip id="121" depart="830.0" from="ce1" to="ce4" type="standard_car" departLane="random" departSpeed="10" />
    <trip id="122" depart="842.0" from="ce1" to="ce4" type="standard_car" departLane="random" departSpeed="10" />
    <trip id="123" depart="844.0" from="ce1" to="ce7" type="standard_car" departLane="random" departSpeed="10" />
    <trip id="124" depart="844.0" from="ce8" to="ce2" type="standard_car" departLane="random" departSpeed="10" />
    <trip id="125" depart="852.0" from="ce1" to="ce4" type="standard_car" departLane="random" departSpeed="10" />
    <trip id="126" depart="858.0" from="ce3" to="ce5" type="standard_car" departLane="random" departSpeed="10" />
    <trip id="127" depart="865.0" from="ce3" to="ce2" type="standard_car" departLane="random" departSpeed="10" />
    <trip id="128" depart="868.0" from="ce1" to="ce5" type="standard_car" departLane="random" departSpeed="10" />
    <trip id="129" depart="884.0" from="ce1" to="ce7" type="standard_car" departLane="random" departSpeed="10" />
    <trip id="130" depart="891.0" from="ce3" to="ce7" type="standard_car" departLane="random" departSpeed="10" />
    <trip id="131" depart="914.0" from="ce3" to="ce5" type="standard_car" departLane="random" departSpeed="10" />
    <trip id="132" depart="919.0" from="ce8" to="ce7" type="standard_car" departLane="random" departSpeed="10" />
    <trip id="133" depart="920.0" from="ce8" to="ce4" type="standard_car" departLane="random" departSpeed="10" />
    <trip id="134" depart="925.0" from="ce1" to="ce4" type="standard_car" departLane="random" departSpeed="10" />
    <trip id="135" depart="925.0" from="ce1" to="ce7" type="standard_car" departLane="random" departSpeed="10" />
    <trip id="136" depart="925.0" from="ce6" to="ce7" type="standard_car" departLane="random" departSpeed="10" />
    <trip id="137" depart="934.0" from="ce1" to="ce5" type="standard_car" departLane="random" departSpeed="10" />
    <trip id="138" depart="936.0" from="ce8" to="ce4" type="standard_car" departLane="random" departSpeed="10" />
    <trip id="139" depart="962.0" from="ce3" to="ce7" type="standard_car" departLane="random" departSpeed="10" />
    <trip id="140" depart="970.0" from="ce6" to="ce7" type="standard_car" departLane="random" departSpeed="10" />
    <trip id="141" depart="971.0" from="ce1" to="ce7" type="standard_car" departLane="random" departSpeed="10" />
    <trip id="142" depart="972.0" from="ce3" to="ce7" type="standard_car" departLane="random" departSpeed="10" />
    <trip id="143" depart="996.0" from="ce1" to="ce4" type="standard_car" departLane="random" departSpeed="10" />
    <trip id="144" depart="998.0" from="ce1" to="ce4" type="standard_car" departLane="random" departSpeed="10" />
    <trip id="145" depart="1002.0" from="ce3" to="ce5" type="standard_car" departLane="random" departSpeed="10" />
    <trip id="146" depart="1005.0" from="ce1" to="ce5" type="standard_car" departLane="random" departSpeed="10" />
    <trip id="147" depart="1019.0" from="ce6" to="ce4" type="standard_car" departLane="random" departSpeed="10" />
    <trip id="148" depart="1022.0" from="ce6" to="ce4" type="standard_car" departLane="random" departSpeed="10" />
    <trip id="149" depart="1026.0" from="ce6" to="ce7" type="standard_car" departLane="random" departSpeed="10" />
    <trip id="150" depart="1030.0" from="ce1" to="ce4" type="standard_car" departLane="random" departSpeed="10" />
    <trip id="151" depart="1030.0" from="ce8" to="ce5" type="standard_car" departLane="random" departSpeed="10" />
    <trip id="152" depart="1032.0" from="ce6" to="ce4" type="standard_car" departLane="random" departSpeed="10" />
    <trip id="153" depart="1048.0" from="ce1" to="ce7" type="standard_car" departLane="random" departSpeed="10" />
    <trip id="154" depart="1069.0" from="ce3" to="ce2" type="standard_car" departLane="random" departSpeed="10" />
    <trip id="155" depart="1074.0" from="ce1" to="ce2" type="standard_car" departLane="random" departSpeed="10" />
    <trip id="156" depart="1089.0" from="ce1" to="ce5" type="standard_car" departLane="random" departSpeed="10" />
    <trip id="157" depart="1106.0" from="ce1" to="ce2" type="standard_car" departLane="random" departSpeed="10" />
    <trip id="158" depart="1118.0" from="ce1" to="ce2" type="standard_car" departLane="random" departSpeed="10" />
    <trip id="159" depart="1123.0" from="ce1" to="ce7" type="standard_car" departLane="random" departSpeed="10" />
    <trip id="160" depart="1124.0" from="ce1" to="ce4" type="standard_car" departLane="random" departSpeed="10" />
    <trip id="161" depart="1125.0" from="ce8" to="ce2" type="standard_car" departLane="random" departSpeed="10" />
    <trip id="162" depart="1128.0" from="ce1" to="ce7" type="standard_car" departLane="random" departSpeed="10" />
    <trip id="163" depart="1129.0" from="ce1" to="ce5" type="standard_car" departLane="random" departSpeed="10" />
    <trip id="164" depart="1131.0" from="ce6" to="ce7" type="standard_car" departLane="random" departSpeed="10" />
    <trip id="165" depart="1142.0" from="ce1" to="ce4" type="standard_car" departLane="random" departSpeed="10" />
    <trip id="166" depart="1145.0" from="ce1" to="ce4" type="standard_car" departLane="random" departSpeed="10" />
    <trip id="167" depart="1154.0" from="ce6" to="ce7" type="standard_car" departLane="random" departSpeed="10" />
    <trip id="168" depart="1163.0" from="ce1" to="ce4" type="standard_car" departLane="random" departSpeed="10" />
    <trip id="169" depart="1164.0" from="ce3" to="ce7" type="standard_car" departLane="random" departSpeed="10" />
    <trip id="170" depart="1165.0" from="ce3" to="ce7" type="standard_car" departLane="random" departSpeed="10" />
    <trip id="171" depart="1172.0" from="ce1" to="ce5" type="standard_car" departLane="random" departSpeed="10" />
    <trip id="172" depart="1172.0" from="ce1" to="ce5" type="standard_car" departLane="random" departSpeed="10" />
    <trip id="173" depart="1172.0" from="ce1" to="ce5" type="standard_car" departLane="random" departSpeed="10" />
    <trip id="174" depart="1173.0" from="ce8" to="ce5" type="standard_car" departLane="random" departSpeed="10" />
    <trip id="175" depart="1180.0" from="ce1" to="ce5" type="standard_car" departLane="random" departSpeed="10" />
    <trip id="176" depart="1186.0" from="ce8" to="ce5" type="standard_car" departLane="random" departSpeed="10" />
    <trip id="177" depart="1203.0" from="ce3" to="ce7" type="standard_car" departLane="random" departSpeed="10" />
    <trip id="178" depart="1213.0" from="ce6" to="ce4" type="standard_car" departLane="random" departSpeed="10" />
    <trip id="179" depart="1214.0" from="ce1" to="ce5" type="standard_car" departLane="random" departSpeed="10" />
    <trip id="180" depart="1223.0" from="ce3" to="ce7" type="standard_car" departLane="random" departSpeed="10" />
    <trip id="181" depart="1233.0" from="ce1" to="ce5" type="standard_car" departLane="random" departSpeed="10" />
    <trip id="182" depart="1249.0" from="ce1" to="ce7" type="standard_car" departLane="random" departSpeed="10" />
    <trip id="183" depart="1251.0" from="ce3" to="ce2" type="standard_car" departLane="random" departSpeed="10" />
    <trip id="184" depart="1252.0" from="ce6" to="ce7" type="standard_car" departLane="random" departSpeed="10" />
    <trip id="185" depart="1253.0" from="ce1" to="ce2" type="standard_car" departLane="random" departSpeed="10" />
    <trip id="186" depart="1261.0" from="ce3" to="ce7" type="standard_car" departLane="random" departSpeed="10" />
    <trip id="187" depart="1262.0" from="ce6" to="ce7" type="standard_car" departLane="random" departSpeed="10" />
    <trip id="188" depart="1273.0" from="ce1" to="ce5" type="standard_car" departLane="random" departSpeed="10" />
    <trip id="189" depart="1274.0" from="ce3" to="ce5" type="standard_car" departLane="random" departSpeed="10" />
    <trip id="190" depart="1276.0" from="ce3" to="ce2" type="standard_car" departLane="random" departSpeed="10" />
    <trip id="191" depart="1286.0" from="ce8" to="ce4" type="standard_car" departLane="random" departSpeed="10" />
    <trip id="192" depart="1299.0" from="ce1" to="ce7" type="standard_car" departLane="random" departSpeed="10" />
    <trip id="193" depart="1317.0" from="ce1" to="ce7" type="standard_car" departLane="random" departSpeed="10" />
    <trip id="194" depart="1321.0" from="ce1" to="ce4" type="standard_car" departLane="random" departSpeed="10" />
    <trip id="195" depart="1321.0" from="ce6" to="ce2" type="standard_car" departLane="random" departSpeed="10" />
    <trip id="196" depart="1329.0" from="ce1" to="ce2" type="standard_car" departLane="random" departSpeed="10" />
    <trip id="197" depart="1335.0" from="ce1" to="ce7" type="standard_car" departLane="random" departSpeed="10" />
    <trip id="198" depart="1338.0" from="ce6" to="ce2" type="standard_car" departLane="random" departSpeed="10" />
    <trip id="199" depart="1341.0" from="ce6" to="ce2" type="standard_car" departLane="random" departSpeed="10" />
    <trip id="200" depart="1344.0" from="ce3" to="ce7" type="standard_car" departLane="random" departSpeed="10" />
    <trip id="201" depart="1349.0" from="ce1" to="ce7" type="standard_car" departLane="random" departSpeed="10" />
    <trip id="202" depart="1365.0" from="ce1" to="ce7" type="standard_car" departLane="random" departSpeed="10" />
    <trip id="203" depart="1372.0" from="ce3" to="ce2" type="standard_car" departLane="random" departSpeed="10" />
    <trip id="204" depart="1375.0" from="ce1" to="ce4" type="standard_car" departLane="random" departSpeed="10" />
    <trip id="205" depart="1378.0" from="ce6" to="ce7" type="standard_car" departLane="random" departSpeed="10" />
    <trip id="206" depart="1379.0" from="ce8" to="ce5" type="standard_car" departLane="random" departSpeed="10" />
    <trip id="207" depart="1396.0" from="ce1" to="ce5" type="standard_car" departLane="random" departSpeed="10" />
    <trip id="208" depart="1398.0" from="ce1" to="ce5" type="standard_car" departLane="random" departSpeed="10" />
    <trip id="209" depart="1404.0" from="ce1" to="ce5" type="standard_car" departLane="random" departSpeed="10" />
    <trip id="210" depart="1405.0" from="ce1" to="ce4" type="standard_car" departLane="random" departSpeed="10" />
    <trip id="211" depart="1408.0" from="ce1" to="ce7" type="standard_car" departLane="random" departSpeed="10" />
    <trip id="212" depart="1408.0" from="ce6" to="ce2" type="standard_car" departLane="random" departSpeed="10" />
    <trip id="213" depart="1410.0" from="ce6" to="ce4" type="standard_car" departLane="random" departSpeed="10" />
    <trip id="214" depart="1413.0" from="ce3" to="ce5" type="standard_car" departLane="random" departSpeed="10" />
    <trip id="215" depart="1424.0" from="ce6" to="ce7" type="standard_car" departLane="random" departSpeed="10" />
    <trip id="216" depart="1432.0" from="ce8" to="ce7" type="standard_car" departLane="random" departSpeed="10" />
    <trip id="217" depart="1434.0" from="ce8" to="ce2" type="standard_car" departLane="random" departSpeed="10" />
    <trip id="218" depart="1446.0" from="ce1" to="ce7" type="standard_car" departLane="random" departSpeed="10" />
    <trip id="219" depart="1447.0" from="ce1" to="ce5" type="standard_car" departLane="random" departSpeed="10" />
    <trip id="220" depart="1448.0" from="ce1" to="ce7" type="standard_car" departLane="random" departSpeed="10" />
    <trip id="221" depart="1461.0" from="ce1" to="ce5" type="standard_car" departLane="random" departSpeed="10" />
    <trip id="222" depart="1469.0" from="ce1" to="ce4" type="standard_car" departLane="random" departSpeed="10" />
    <trip id="223" depart="1473.0" from="ce6" to="ce7" type="standard_car" departLane="random" departSpeed="10" />
    <trip id="224" depart="1479.0" from="ce8" to="ce2" type="standard_car" departLane="random" departSpeed="10" />
    <trip id="225" depart="1487.0" from="ce6" to="ce2" type="standard_car" departLane="random" departSpeed="10" />
    <trip id="226" depart="1493.0" from="ce6" to="ce7" type="standard_car" departLane="random" departSpeed="10" />
    <trip id="227" depart="1494.0" from="ce3" to="ce5" type="standard_car" departLane="random" departSpeed="10" />
    <trip id="228" depart="1499.0" from="ce1" to="ce5" type="standard_car" departLane="random" departSpeed="10" />
    <trip id="229" depart="1504.0" from="ce6" to="ce5" type="standard_car" departLane="random" departSpeed="10" />
    <trip id="230" depart="1509.0" from="ce1" to="ce7" type="standard_car" departLane="random" departSpeed="10" />
    <trip id="231" depart="1517.0" from="ce1" to="ce7" type="standard_car" departLane="random" departSpeed="10" />
    <trip id="232" depart="1526.0" from="ce8" to="ce4" type="standard_car" departLane="random" departSpeed="10" />
    <trip id="233" depart="1532.0" from="ce3" to="ce7" type="standard_car" departLane="random" departSpeed="10" />
    <trip id="234" depart="1533.0" from="ce6" to="ce2" type="standard_car" departLane="random" departSpeed="10" />
    <trip id="235" depart="1533.0" from="ce6" to="ce4" type="standard_car" departLane="random" departSpeed="10" />
    <trip id="236" depart="1535.0" from="ce1" to="ce7" type="standard_car" departLane="random" departSpeed="10" />
    <trip id="237" depart="1540.0" from="ce1" to="ce7" type="standard_car" departLane="random" departSpeed="10" />
    <trip id="238" depart="1541.0" from="ce1" to="ce7" type="standard_car" departLane="random" departSpeed="10" />
    <trip id="239" depart="1542.0" from="ce6" to="ce5" type="standard_car" departLane="random" departSpeed="10" />
    <trip id="240" depart="1542.0" from="ce8" to="ce4" type="standard_car" departLane="random" departSpeed="10" />
    <trip id="241" depart="1544.0" from="ce1" to="ce7" type="standard_car" departLane="random" departSpeed="10" />
    <trip id="242" depart="1591.0" from="ce1" to="ce4" type="standard_car" departLane="random" departSpeed="10" />
    <trip id="243" depart="1596.0" from="ce3" to="ce2" type="standard_car" departLane="random" departSpeed="10" />
    <trip id="244" depart="1606.0" from="ce1" to="ce7" type="standard_car" departLane="random" departSpeed="10" />
    <trip id="245" depart="1616.0" from="ce1" to="ce7" type="standard_car" departLane="random" departSpeed="10" />
    <trip id="246" depart="1644.0" from="ce3" to="ce7" type="standard_car" departLane="random" departSpeed="10" />
    <trip id="247" depart="1647.0" from="ce3" to="ce2" type="standard_car" departLane="random" departSpeed="10" />
    <trip id="248" depart="1648.0" from="ce1" to="ce5" type="standard_car" departLane="random" departSpeed="10" />
    <trip id="249" depart="1675.0" from="ce1" to="ce2" type="standard_car" departLane="random" departSpeed="10" />
    <trip id="250" depart="1676.0" from="ce1" to="ce7" type="standard_car" departLane="random" departSpeed="10" />
    <trip id="251" depart="1680.0" from="ce1" to="ce5" type="standard_car" departLane="random" departSpeed="10" />
    <trip id="252" depart="1689.0" from="ce1" to="ce7" type="standard_car" departLane="random" departSpeed="10" />
    <trip id="253" depart="1697.0" from="ce1" to="ce4" type="standard_car" departLane="random" departSpeed="10" />
    <trip id="254" depart="1700.0" from="ce1" to="ce2" type="standard_car" departLane="random" departSpeed="10" />
    <trip id="255" depart="1701.0" from="ce6" to="ce2" type="standard_car" departLane="random" departSpeed="10" />
    <trip id="256" depart="1703.0" from="ce1" to="ce5" type="standard_car" departLane="random" departSpeed="10" />
    <trip id="257" depart="1708.0" from="ce6" to="ce2" type="standard_car" departLane="random" departSpeed="10" />
    <trip id="258" depart="1709.0" from="ce3" to="ce5" type="standard_car" departLane="random" departSpeed="10" />
    <trip id="259" depart="1724.0" from="ce1" to="ce4" type="standard_car" departLane="random" departSpeed="10" />
    <trip id="260" depart="1724.0" from="ce1" to="ce7" type="standard_car" departLane="random" departSpeed="10" />
    <trip id="261" depart="1729.0" from="ce6" to="ce4" type="standard_car" departLane="random" departSpeed="10" />