<?xml version="1.0" ?>
<connections>
	<connection from="e1" to="e7" fromLane="3" toLane="3"/>
	<connection from="e1" to="ce18" fromLane="0" toLane="0"/>
	<connection from="e1" to="ce19" fromLane="0" toLane="0"/>
	<connection from="e1" to="ce19" fromLane="1" toLane="1"/>
	<connection from="e1" to="ce19" fromLane="2" toLane="2"/>
	<connection from="e2" to="e3" fromLane="0" toLane="0"/>
	<connection from="e2" to="ce10" fromLane="0" toLane="0"/>
	<connection from="e2" to="ce10" fromLane="1" toLane="1"/>
	<connection from="e2" to="ce10" fromLane="2" toLane="2"/>
	<connection from="e2" to="ce14" fromLane="3" toLane="3"/>
	<connection from="e3" to="e5" fromLane="0" toLane="0"/>
	<connection from="e3" to="ce12" fromLane="3" toLane="3"/>
	<connection from="e3" to="ce15" fromLane="0" toLane="0"/>
	<connection from="e3" to="ce15" fromLane="1" toLane="1"/>
	<connection from="e3" to="ce15" fromLane="2" toLane="2"/>
	<connection from="e4" to="e1" fromLane="3" toLane="3"/>
	<connection from="e4" to="ce10" fromLane="0" toLane="0"/>
	<connection from="e4" to="ce14" fromLane="0" toLane="0"/>
	<connection from="e4" to="ce14" fromLane="1" toLane="1"/>
	<connection from="e4" to="ce14" fromLane="2" toLane="2"/>
	<connection from="e5" to="e8" fromLane="0" toLane="0"/>
	<connection from="e5" to="ce21" fromLane="0" toLane="0"/>
	<connection from="e5" to="ce21" fromLane="1" toLane="1"/>
	<connection from="e5" to="ce21" fromLane="2" toLane="2"/>
	<connection from="e5" to="ce23" fromLane="3" toLane="3"/>
	<connection from="e6" to="e4" fromLane="3" toLane="3"/>
	<connection from="e6" to="ce12" fromLane="0" toLane="0"/>
	<connection from="e6" to="ce12" fromLane="1" toLane="1"/>
	<connection from="e6" to="ce12" fromLane="2" toLane="2"/>
	<connection from="e6" to="ce15" fromLane="0" toLane="0"/>
	<connection from="e7" to="e6" fromLane="3" toLane="3"/>
	<connection from="e7" to="ce21" fromLane="0" toLane="0"/>
	<connection from="e7" to="ce23" fromLane="0" toLane="0"/>
	<connection from="e7" to="ce23" fromLane="1" toLane="1"/>
	<connection from="e7" to="ce23" fromLane="2" toLane="2"/>
	<connection from="e8" to="e2" fromLane="0" toLane="0"/>
	<connection from="e8" to="ce18" fromLane="0" toLane="0"/>
	<connection from="e8" to="ce18" fromLane="1" toLane="1"/>
	<connection from="e8" to="ce18" fromLane="2" toLane="2"/>
	<connection from="e8" to="ce19" fromLane="3" toLane="3"/>
	<connection from="ce9" to="e1" fromLane="0" toLane="0"/>
	<connection from="ce9" to="e1" fromLane="1" toLane="1"/>
	<connection from="ce9" to="e1" fromLane="2" toLane="2"/>
	<connection from="ce9" to="e3" fromLane="3" toLane="3"/>
	<connection from="ce9" to="ce14" fromLane="0" toLane="0"/>
	<connection from="ce11" to="e4" fromLane="0" toLane="0"/>
	<connection from="ce11" to="e5" fromLane="0" toLane="0"/>
	<connection from="ce11" to="e5" fromLane="1" toLane="1"/>
	<connection from="ce11" to="e5" fromLane="2" toLane="2"/>
	<connection from="ce11" to="ce15" fromLane="3" toLane="3"/>
	<connection from="ce13" to="e1" fromLane="0" toLane="0"/>
	<connection from="ce13" to="e3" fromLane="0" toLane="0"/>
	<connection from="ce13" to="e3" fromLane="1" toLane="1"/>
	<connection from="ce13" to="e3" fromLane="2" toLane="2"/>
	<connection from="ce13" to="ce10" fromLane="3" toLane="3"/>
	<connection from="ce16" to="e4" fromLane="0" toLane="0"/>
	<connection from="ce16" to="e4" fromLane="1" toLane="1"/>
	<connection from="ce16" to="e4" fromLane="2" toLane="2"/>
	<connection from="ce16" to="e5" fromLane="3" toLane="3"/>
	<connection from="ce16" to="ce12" fromLane="0" toLane="0"/>
	<connection from="ce17" to="e2" fromLane="3" toLane="3"/>
	<connection from="ce17" to="e7" fromLane="0" toLane="0"/>
	<connection from="ce17" to="e7" fromLane="1" toLane="1"/>
	<connection from="ce17" to="e7" fromLane="2" toLane="2"/>
	<connection from="ce17" to="ce19" fromLane="0" toLane="0"/>
	<connection from="ce20" to="e2" fromLane="0" toLane="0"/>
	<connection from="ce20" to="e2" fromLane="1" toLane="1"/>
	<connection from="ce20" to="e2" fromLane="2" toLane="2"/>
	<connection from="ce20" to="e7" fromLane="0" toLane="0"/>
	<connection from="ce20" to="ce18" fromLane="3" toLane="3"/>
	<connection from="ce22" to="e6" fromLane="0" toLane="0"/>
	<connection from="ce22" to="e6" fromLane="1" toLane="1"/>
	<connection from="ce22" to="e6" fromLane="2" toLane="2"/>
	<connection from="ce22" to="e8" fromLane="3" toLane="3"/>
	<connection from="ce22" to="ce23" fromLane="0" toLane="0"/>
	<connection from="ce24" to="e6" fromLane="0" toLane="0"/>
	<connection from="ce24" to="e8" fromLane="0" toLane="0"/>
	<connection from="ce24" to="e8" fromLane="1" toLane="1"/>
	<connection from="ce24" to="e8" fromLane="2" toLane="2"/>
	<connection from="ce24" to="ce21" fromLane="3" toLane="3"/>
</connections>
