<?xml version="1.0" encoding="UTF-8"?>

<!-- generated on 2022-02-20 21:50:02 by Eclipse SUMO netconvert Version 1.10.0
<configuration xmlns:xsi="http://www.w3.org/2001/XMLSchema-instance" xsi:noNamespaceSchemaLocation="http://sumo.dlr.de/xsd/netconvertConfiguration.xsd">

    <input>
        <node-files value="intersection/models_dqnfixed/model_1/Ingolstadt_5_Nodes.nod.xml"/>
        <edge-files value="intersection/models_dqnfixed/model_1/Ingolstadt_5_Edges.edg.xml"/>
        <connection-files value="intersection/models_dqnfixed/model_1/Ingolstadt_30_Connections.con.xml"/>
        <tllogic-files value="intersection/models_dqnfixed/model_1/Ingolstadt_5_TrafficLights.tll.xml"/>
    </input>

    <output>
        <output-file value="intersection/models_dqnfixed/model_1/environment.net.xml"/>
    </output>

    <report>
        <aggregate-warnings value="5"/>
    </report>

</configuration>
-->

<net version="1.9" junctionCornerDetail="5" limitTurnSpeed="5.50" xmlns:xsi="http://www.w3.org/2001/XMLSchema-instance" xsi:noNamespaceSchemaLocation="http://sumo.dlr.de/xsd/net_file.xsd">

    <location netOffset="-62.50,-62.50" convBoundary="0.00,0.00,625.00,875.00" origBoundary="62.50,62.50,687.50,937.50" projParameter="!"/>

    <edge id=":1_0" function="internal">
        <lane id=":1_0_0" index="0" speed="6.51" length="9.03" shape="176.30,204.30 175.95,201.85 174.90,200.10 173.15,199.05 170.70,198.70"/>
    </edge>
    <edge id=":1_1" function="internal">
        <lane id=":1_1_0" index="0" speed="13.90" length="33.60" shape="176.30,204.30 176.30,170.70"/>
        <lane id=":1_1_1" index="1" speed="13.90" length="33.60" shape="179.50,204.30 179.50,170.70"/>
        <lane id=":1_1_2" index="2" speed="13.90" length="33.60" shape="182.70,204.30 182.70,170.70"/>
    </edge>
    <edge id=":1_4" function="internal">
        <lane id=":1_4_0" index="0" speed="11.36" length="29.67" shape="185.90,204.30 187.05,196.25 190.50,190.50 196.25,187.05 204.30,185.90"/>
    </edge>
    <edge id=":1_5" function="internal">
        <lane id=":1_5_0" index="0" speed="6.51" length="9.03" shape="204.30,198.70 201.85,199.05 200.10,200.10 199.05,201.85 198.70,204.30"/>
    </edge>
    <edge id=":1_6" function="internal">
        <lane id=":1_6_0" index="0" speed="13.90" length="33.60" shape="204.30,198.70 170.70,198.70"/>
        <lane id=":1_6_1" index="1" speed="13.90" length="33.60" shape="204.30,195.50 170.70,195.50"/>
        <lane id=":1_6_2" index="2" speed="13.90" length="33.60" shape="204.30,192.30 170.70,192.30"/>
    </edge>
    <edge id=":1_9" function="internal">
        <lane id=":1_9_0" index="0" speed="11.36" length="29.67" shape="204.30,189.10 196.25,187.95 190.50,184.50 187.05,178.75 185.90,170.70"/>
    </edge>
    <edge id=":1_10" function="internal">
        <lane id=":1_10_0" index="0" speed="6.51" length="9.03" shape="198.70,170.70 199.05,173.15 200.10,174.90 201.85,175.95 204.30,176.30"/>
    </edge>
    <edge id=":1_11" function="internal">
        <lane id=":1_11_0" index="0" speed="13.90" length="33.60" shape="198.70,170.70 198.70,204.30"/>
        <lane id=":1_11_1" index="1" speed="13.90" length="33.60" shape="195.50,170.70 195.50,204.30"/>
        <lane id=":1_11_2" index="2" speed="13.90" length="33.60" shape="192.30,170.70 192.30,204.30"/>
    </edge>
    <edge id=":1_14" function="internal">
        <lane id=":1_14_0" index="0" speed="11.36" length="29.67" shape="189.10,170.70 187.95,178.75 184.50,184.50 178.75,187.95 170.70,189.10"/>
    </edge>
    <edge id=":1_15" function="internal">
        <lane id=":1_15_0" index="0" speed="6.51" length="9.03" shape="170.70,176.30 173.15,175.95 174.90,174.90 175.95,173.15 176.30,170.70"/>
    </edge>
    <edge id=":1_16" function="internal">
        <lane id=":1_16_0" index="0" speed="13.90" length="33.60" shape="170.70,176.30 204.30,176.30"/>
        <lane id=":1_16_1" index="1" speed="13.90" length="33.60" shape="170.70,179.50 204.30,179.50"/>
        <lane id=":1_16_2" index="2" speed="13.90" length="33.60" shape="170.70,182.70 204.30,182.70"/>
    </edge>
    <edge id=":1_19" function="internal">
        <lane id=":1_19_0" index="0" speed="11.36" length="29.67" shape="170.70,185.90 178.75,187.05 184.50,190.50 187.95,196.25 189.10,204.30"/>
    </edge>
    <edge id=":2_0" function="internal">
        <lane id=":2_0_0" index="0" speed="6.51" length="9.03" shape="176.30,454.30 175.95,451.85 174.90,450.10 173.15,449.05 170.70,448.70"/>
    </edge>
    <edge id=":2_1" function="internal">
        <lane id=":2_1_0" index="0" speed="13.90" length="33.60" shape="176.30,454.30 176.30,420.70"/>
        <lane id=":2_1_1" index="1" speed="13.90" length="33.60" shape="179.50,454.30 179.50,420.70"/>
        <lane id=":2_1_2" index="2" speed="13.90" length="33.60" shape="182.70,454.30 182.70,420.70"/>
    </edge>
    <edge id=":2_4" function="internal">
        <lane id=":2_4_0" index="0" speed="11.36" length="29.67" shape="185.90,454.30 187.05,446.25 190.50,440.50 196.25,437.05 204.30,435.90"/>
    </edge>
    <edge id=":2_5" function="internal">
        <lane id=":2_5_0" index="0" speed="6.51" length="9.03" shape="204.30,448.70 201.85,449.05 200.10,450.10 199.05,451.85 198.70,454.30"/>
    </edge>
    <edge id=":2_6" function="internal">
        <lane id=":2_6_0" index="0" speed="13.90" length="33.60" shape="204.30,448.70 170.70,448.70"/>
        <lane id=":2_6_1" index="1" speed="13.90" length="33.60" shape="204.30,445.50 170.70,445.50"/>
        <lane id=":2_6_2" index="2" speed="13.90" length="33.60" shape="204.30,442.30 170.70,442.30"/>
    </edge>
    <edge id=":2_9" function="internal">
        <lane id=":2_9_0" index="0" speed="11.36" length="29.67" shape="204.30,439.10 196.25,437.95 190.50,434.50 187.05,428.75 185.90,420.70"/>
    </edge>
    <edge id=":2_10" function="internal">
        <lane id=":2_10_0" index="0" speed="6.51" length="9.03" shape="198.70,420.70 199.05,423.15 200.10,424.90 201.85,425.95 204.30,426.30"/>
    </edge>
    <edge id=":2_11" function="internal">
        <lane id=":2_11_0" index="0" speed="13.90" length="33.60" shape="198.70,420.70 198.70,454.30"/>
        <lane id=":2_11_1" index="1" speed="13.90" length="33.60" shape="195.50,420.70 195.50,454.30"/>
        <lane id=":2_11_2" index="2" speed="13.90" length="33.60" shape="192.30,420.70 192.30,454.30"/>
    </edge>
    <edge id=":2_14" function="internal">
        <lane id=":2_14_0" index="0" speed="11.36" length="29.67" shape="189.10,420.70 187.95,428.75 184.50,434.50 178.75,437.95 170.70,439.10"/>
    </edge>
    <edge id=":2_15" function="internal">
        <lane id=":2_15_0" index="0" speed="6.51" length="9.03" shape="170.70,426.30 173.15,425.95 174.90,424.90 175.95,423.15 176.30,420.70"/>
    </edge>
    <edge id=":2_16" function="internal">
        <lane id=":2_16_0" index="0" speed="13.90" length="33.60" shape="170.70,426.30 204.30,426.30"/>
        <lane id=":2_16_1" index="1" speed="13.90" length="33.60" shape="170.70,429.50 204.30,429.50"/>
        <lane id=":2_16_2" index="2" speed="13.90" length="33.60" shape="170.70,432.70 204.30,432.70"/>
    </edge>
    <edge id=":2_19" function="internal">
        <lane id=":2_19_0" index="0" speed="11.36" length="29.67" shape="170.70,435.90 178.75,437.05 184.50,440.50 187.95,446.25 189.10,454.30"/>
    </edge>
    <edge id=":3_0" function="internal">
        <lane id=":3_0_0" index="0" speed="6.51" length="9.03" shape="426.30,454.30 425.95,451.85 424.90,450.10 423.15,449.05 420.70,448.70"/>
    </edge>
    <edge id=":3_1" function="internal">
        <lane id=":3_1_0" index="0" speed="13.90" length="33.60" shape="426.30,454.30 426.30,420.70"/>
        <lane id=":3_1_1" index="1" speed="13.90" length="33.60" shape="429.50,454.30 429.50,420.70"/>
        <lane id=":3_1_2" index="2" speed="13.90" length="33.60" shape="432.70,454.30 432.70,420.70"/>
    </edge>
    <edge id=":3_4" function="internal">
        <lane id=":3_4_0" index="0" speed="11.36" length="29.67" shape="435.90,454.30 437.05,446.25 440.50,440.50 446.25,437.05 454.30,435.90"/>
    </edge>
    <edge id=":3_5" function="internal">
        <lane id=":3_5_0" index="0" speed="6.51" length="9.03" shape="454.30,448.70 451.85,449.05 450.10,450.10 449.05,451.85 448.70,454.30"/>
    </edge>
    <edge id=":3_6" function="internal">
        <lane id=":3_6_0" index="0" speed="13.90" length="33.60" shape="454.30,448.70 420.70,448.70"/>
        <lane id=":3_6_1" index="1" speed="13.90" length="33.60" shape="454.30,445.50 420.70,445.50"/>
        <lane id=":3_6_2" index="2" speed="13.90" length="33.60" shape="454.30,442.30 420.70,442.30"/>
    </edge>
    <edge id=":3_9" function="internal">
        <lane id=":3_9_0" index="0" speed="11.36" length="29.67" shape="454.30,439.10 446.25,437.95 440.50,434.50 437.05,428.75 435.90,420.70"/>
    </edge>
    <edge id=":3_10" function="internal">
        <lane id=":3_10_0" index="0" speed="6.51" length="9.03" shape="448.70,420.70 449.05,423.15 450.10,424.90 451.85,425.95 454.30,426.30"/>
    </edge>
    <edge id=":3_11" function="internal">
        <lane id=":3_11_0" index="0" speed="13.90" length="33.60" shape="448.70,420.70 448.70,454.30"/>
        <lane id=":3_11_1" index="1" speed="13.90" length="33.60" shape="445.50,420.70 445.50,454.30"/>
        <lane id=":3_11_2" index="2" speed="13.90" length="33.60" shape="442.30,420.70 442.30,454.30"/>
    </edge>
    <edge id=":3_14" function="internal">
        <lane id=":3_14_0" index="0" speed="11.36" length="29.67" shape="439.10,420.70 437.95,428.75 434.50,434.50 428.75,437.95 420.70,439.10"/>
    </edge>
    <edge id=":3_15" function="internal">
        <lane id=":3_15_0" index="0" speed="6.51" length="9.03" shape="420.70,426.30 423.15,425.95 424.90,424.90 425.95,423.15 426.30,420.70"/>
    </edge>
    <edge id=":3_16" function="internal">
        <lane id=":3_16_0" index="0" speed="13.90" length="33.60" shape="420.70,426.30 454.30,426.30"/>
        <lane id=":3_16_1" index="1" speed="13.90" length="33.60" shape="420.70,429.50 454.30,429.50"/>
        <lane id=":3_16_2" index="2" speed="13.90" length="33.60" shape="420.70,432.70 454.30,432.70"/>
    </edge>
    <edge id=":3_19" function="internal">
        <lane id=":3_19_0" index="0" speed="11.36" length="29.67" shape="420.70,435.90 428.75,437.05 434.50,440.50 437.95,446.25 439.10,454.30"/>
    </edge>
    <edge id=":4_0" function="internal">
        <lane id=":4_0_0" index="0" speed="6.51" length="9.03" shape="426.30,204.30 425.95,201.85 424.90,200.10 423.15,199.05 420.70,198.70"/>
    </edge>
    <edge id=":4_1" function="internal">
        <lane id=":4_1_0" index="0" speed="13.90" length="33.60" shape="426.30,204.30 426.30,170.70"/>
        <lane id=":4_1_1" index="1" speed="13.90" length="33.60" shape="429.50,204.30 429.50,170.70"/>
        <lane id=":4_1_2" index="2" speed="13.90" length="33.60" shape="432.70,204.30 432.70,170.70"/>
    </edge>
    <edge id=":4_4" function="internal">
        <lane id=":4_4_0" index="0" speed="11.36" length="29.67" shape="435.90,204.30 437.05,196.25 440.50,190.50 446.25,187.05 454.30,185.90"/>
    </edge>
    <edge id=":4_5" function="internal">
        <lane id=":4_5_0" index="0" speed="6.51" length="9.03" shape="454.30,198.70 451.85,199.05 450.10,200.10 449.05,201.85 448.70,204.30"/>
    </edge>
    <edge id=":4_6" function="internal">
        <lane id=":4_6_0" index="0" speed="13.90" length="33.60" shape="454.30,198.70 420.70,198.70"/>
        <lane id=":4_6_1" index="1" speed="13.90" length="33.60" shape="454.30,195.50 420.70,195.50"/>
        <lane id=":4_6_2" index="2" speed="13.90" length="33.60" shape="454.30,192.30 420.70,192.30"/>
    </edge>
    <edge id=":4_9" function="internal">
        <lane id=":4_9_0" index="0" speed="11.36" length="29.67" shape="454.30,189.10 446.25,187.95 440.50,184.50 437.05,178.75 435.90,170.70"/>
    </edge>
    <edge id=":4_10" function="internal">
        <lane id=":4_10_0" index="0" speed="6.51" length="9.03" shape="448.70,170.70 449.05,173.15 450.10,174.90 451.85,175.95 454.30,176.30"/>
    </edge>
    <edge id=":4_11" function="internal">
        <lane id=":4_11_0" index="0" speed="13.90" length="33.60" shape="448.70,170.70 448.70,204.30"/>
        <lane id=":4_11_1" index="1" speed="13.90" length="33.60" shape="445.50,170.70 445.50,204.30"/>
        <lane id=":4_11_2" index="2" speed="13.90" length="33.60" shape="442.30,170.70 442.30,204.30"/>
    </edge>
    <edge id=":4_14" function="internal">
        <lane id=":4_14_0" index="0" speed="11.36" length="29.67" shape="439.10,170.70 437.95,178.75 434.50,184.50 428.75,187.95 420.70,189.10"/>
    </edge>
    <edge id=":4_15" function="internal">
        <lane id=":4_15_0" index="0" speed="6.51" length="9.03" shape="420.70,176.30 423.15,175.95 424.90,174.90 425.95,173.15 426.30,170.70"/>
    </edge>
    <edge id=":4_16" function="internal">
        <lane id=":4_16_0" index="0" speed="13.90" length="33.60" shape="420.70,176.30 454.30,176.30"/>
        <lane id=":4_16_1" index="1" speed="13.90" length="33.60" shape="420.70,179.50 454.30,179.50"/>
        <lane id=":4_16_2" index="2" speed="13.90" length="33.60" shape="420.70,182.70 454.30,182.70"/>
    </edge>
    <edge id=":4_19" function="internal">
        <lane id=":4_19_0" index="0" speed="11.36" length="29.67" shape="420.70,185.90 428.75,187.05 434.50,190.50 437.95,196.25 439.10,204.30"/>
    </edge>
    <edge id=":5_0" function="internal">
        <lane id=":5_0_0" index="0" speed="6.51" length="9.03" shape="176.30,704.30 175.95,701.85 174.90,700.10 173.15,699.05 170.70,698.70"/>
    </edge>
    <edge id=":5_1" function="internal">
        <lane id=":5_1_0" index="0" speed="13.90" length="33.60" shape="176.30,704.30 176.30,670.70"/>
        <lane id=":5_1_1" index="1" speed="13.90" length="33.60" shape="179.50,704.30 179.50,670.70"/>
        <lane id=":5_1_2" index="2" speed="13.90" length="33.60" shape="182.70,704.30 182.70,670.70"/>
    </edge>
    <edge id=":5_4" function="internal">
        <lane id=":5_4_0" index="0" speed="11.36" length="29.67" shape="185.90,704.30 187.05,696.25 190.50,690.50 196.25,687.05 204.30,685.90"/>
    </edge>
    <edge id=":5_5" function="internal">
        <lane id=":5_5_0" index="0" speed="6.51" length="9.03" shape="204.30,698.70 201.85,699.05 200.10,700.10 199.05,701.85 198.70,704.30"/>
    </edge>
    <edge id=":5_6" function="internal">
        <lane id=":5_6_0" index="0" speed="13.90" length="33.60" shape="204.30,698.70 170.70,698.70"/>
        <lane id=":5_6_1" index="1" speed="13.90" length="33.60" shape="204.30,695.50 170.70,695.50"/>
        <lane id=":5_6_2" index="2" speed="13.90" length="33.60" shape="204.30,692.30 170.70,692.30"/>
    </edge>
    <edge id=":5_9" function="internal">
        <lane id=":5_9_0" index="0" speed="11.36" length="29.67" shape="204.30,689.10 196.25,687.95 190.50,684.50 187.05,678.75 185.90,670.70"/>
    </edge>
    <edge id=":5_10" function="internal">
        <lane id=":5_10_0" index="0" speed="6.51" length="9.03" shape="198.70,670.70 199.05,673.15 200.10,674.90 201.85,675.95 204.30,676.30"/>
    </edge>
    <edge id=":5_11" function="internal">
        <lane id=":5_11_0" index="0" speed="13.90" length="33.60" shape="198.70,670.70 198.70,704.30"/>
        <lane id=":5_11_1" index="1" speed="13.90" length="33.60" shape="195.50,670.70 195.50,704.30"/>
        <lane id=":5_11_2" index="2" speed="13.90" length="33.60" shape="192.30,670.70 192.30,704.30"/>
    </edge>
    <edge id=":5_14" function="internal">
        <lane id=":5_14_0" index="0" speed="11.36" length="29.67" shape="189.10,670.70 187.95,678.75 184.50,684.50 178.75,687.95 170.70,689.10"/>
    </edge>
    <edge id=":5_15" function="internal">
        <lane id=":5_15_0" index="0" speed="6.51" length="9.03" shape="170.70,676.30 173.15,675.95 174.90,674.90 175.95,673.15 176.30,670.70"/>
    </edge>
    <edge id=":5_16" function="internal">
        <lane id=":5_16_0" index="0" speed="13.90" length="33.60" shape="170.70,676.30 204.30,676.30"/>
        <lane id=":5_16_1" index="1" speed="13.90" length="33.60" shape="170.70,679.50 204.30,679.50"/>
        <lane id=":5_16_2" index="2" speed="13.90" length="33.60" shape="170.70,682.70 204.30,682.70"/>
    </edge>
    <edge id=":5_19" function="internal">
        <lane id=":5_19_0" index="0" speed="11.36" length="29.67" shape="170.70,685.90 178.75,687.05 184.50,690.50 187.95,696.25 189.10,704.30"/>
    </edge>
    <edge id=":c10_0" function="internal">
        <lane id=":c10_0_0" index="0" speed="3.65" length="4.67" shape="189.10,875.00 188.30,876.20 187.50,876.60 186.70,876.20 185.90,875.00"/>
    </edge>
    <edge id=":c11_0" function="internal">
        <lane id=":c11_0_0" index="0" speed="3.65" length="4.67" shape="435.90,0.00 436.70,-1.20 437.50,-1.60 438.30,-1.20 439.10,0.00"/>
    </edge>
    <edge id=":c12_0" function="internal">
        <lane id=":c12_0_0" index="0" speed="3.65" length="4.67" shape="375.00,685.90 376.20,686.70 376.60,687.50 376.20,688.30 375.00,689.10"/>
    </edge>
    <edge id=":c14_0" function="internal">
        <lane id=":c14_0_0" index="0" speed="3.65" length="4.67" shape="439.10,625.00 438.30,626.20 437.50,626.60 436.70,626.20 435.90,625.00"/>
    </edge>
    <edge id=":c15_0" function="internal">
        <lane id=":c15_0_0" index="0" speed="3.65" length="4.67" shape="625.00,185.90 626.20,186.70 626.60,187.50 626.20,188.30 625.00,189.10"/>
    </edge>
    <edge id=":c16_0" function="internal">
        <lane id=":c16_0_0" index="0" speed="3.65" length="4.67" shape="625.00,435.90 626.20,436.70 626.60,437.50 626.20,438.30 625.00,439.10"/>
    </edge>
    <edge id=":c6_0" function="internal">
        <lane id=":c6_0_0" index="0" speed="3.65" length="4.67" shape="0.00,189.10 -1.20,188.30 -1.60,187.50 -1.20,186.70 0.00,185.90"/>
    </edge>
    <edge id=":c7_0" function="internal">
        <lane id=":c7_0_0" index="0" speed="3.65" length="4.67" shape="0.00,439.10 -1.20,438.30 -1.60,437.50 -1.20,436.70 0.00,435.90"/>
    </edge>
    <edge id=":c8_0" function="internal">
        <lane id=":c8_0_0" index="0" speed="3.65" length="4.67" shape="0.00,689.10 -1.20,688.30 -1.60,687.50 -1.20,686.70 0.00,685.90"/>
    </edge>
    <edge id=":c9_0" function="internal">
        <lane id=":c9_0_0" index="0" speed="3.65" length="4.67" shape="185.90,0.00 186.70,-1.20 187.50,-1.60 188.30,-1.20 189.10,0.00"/>
    </edge>

    <edge id="ce11" from="c6" to="1" priority="-1">
        <lane id="ce11_0" index="0" speed="13.90" length="170.70" shape="0.00,176.30 170.70,176.30"/>
        <lane id="ce11_1" index="1" speed="13.90" length="170.70" shape="0.00,179.50 170.70,179.50"/>
        <lane id="ce11_2" index="2" speed="13.90" length="170.70" shape="0.00,182.70 170.70,182.70"/>
        <lane id="ce11_3" index="3" speed="13.90" length="170.70" shape="0.00,185.90 170.70,185.90"/>
    </edge>
    <edge id="ce12" from="1" to="c6" priority="-1">
        <lane id="ce12_0" index="0" speed="13.90" length="170.70" shape="170.70,198.70 0.00,198.70"/>
        <lane id="ce12_1" index="1" speed="13.90" length="170.70" shape="170.70,195.50 0.00,195.50"/>
        <lane id="ce12_2" index="2" speed="13.90" length="170.70" shape="170.70,192.30 0.00,192.30"/>
        <lane id="ce12_3" index="3" speed="13.90" length="170.70" shape="170.70,189.10 0.00,189.10"/>
    </edge>
    <edge id="ce13" from="c7" to="2" priority="-1">
        <lane id="ce13_0" index="0" speed="13.90" length="170.70" shape="0.00,426.30 170.70,426.30"/>
        <lane id="ce13_1" index="1" speed="13.90" length="170.70" shape="0.00,429.50 170.70,429.50"/>
        <lane id="ce13_2" index="2" speed="13.90" length="170.70" shape="0.00,432.70 170.70,432.70"/>
        <lane id="ce13_3" index="3" speed="13.90" length="170.70" shape="0.00,435.90 170.70,435.90"/>
    </edge>
    <edge id="ce14" from="2" to="c7" priority="-1">
        <lane id="ce14_0" index="0" speed="13.90" length="170.70" shape="170.70,448.70 0.00,448.70"/>
        <lane id="ce14_1" index="1" speed="13.90" length="170.70" shape="170.70,445.50 0.00,445.50"/>
        <lane id="ce14_2" index="2" speed="13.90" length="170.70" shape="170.70,442.30 0.00,442.30"/>
        <lane id="ce14_3" index="3" speed="13.90" length="170.70" shape="170.70,439.10 0.00,439.10"/>
    </edge>
    <edge id="ce15" from="c8" to="5" priority="-1">
        <lane id="ce15_0" index="0" speed="13.90" length="170.70" shape="0.00,676.30 170.70,676.30"/>
        <lane id="ce15_1" index="1" speed="13.90" length="170.70" shape="0.00,679.50 170.70,679.50"/>
        <lane id="ce15_2" index="2" speed="13.90" length="170.70" shape="0.00,682.70 170.70,682.70"/>
        <lane id="ce15_3" index="3" speed="13.90" length="170.70" shape="0.00,685.90 170.70,685.90"/>
    </edge>
    <edge id="ce16" from="5" to="c8" priority="-1">
        <lane id="ce16_0" index="0" speed="13.90" length="170.70" shape="170.70,698.70 0.00,698.70"/>
        <lane id="ce16_1" index="1" speed="13.90" length="170.70" shape="170.70,695.50 0.00,695.50"/>
        <lane id="ce16_2" index="2" speed="13.90" length="170.70" shape="170.70,692.30 0.00,692.30"/>
        <lane id="ce16_3" index="3" speed="13.90" length="170.70" shape="170.70,689.10 0.00,689.10"/>
    </edge>
    <edge id="ce17" from="c9" to="1" priority="-1">
        <lane id="ce17_0" index="0" speed="13.90" length="170.70" shape="198.70,0.00 198.70,170.70"/>
        <lane id="ce17_1" index="1" speed="13.90" length="170.70" shape="195.50,0.00 195.50,170.70"/>
        <lane id="ce17_2" index="2" speed="13.90" length="170.70" shape="192.30,0.00 192.30,170.70"/>
        <lane id="ce17_3" index="3" speed="13.90" length="170.70" shape="189.10,0.00 189.10,170.70"/>
    </edge>
    <edge id="ce18" from="1" to="c9" priority="-1">
        <lane id="ce18_0" index="0" speed="13.90" length="170.70" shape="176.30,170.70 176.30,0.00"/>
        <lane id="ce18_1" index="1" speed="13.90" length="170.70" shape="179.50,170.70 179.50,0.00"/>
        <lane id="ce18_2" index="2" speed="13.90" length="170.70" shape="182.70,170.70 182.70,0.00"/>
        <lane id="ce18_3" index="3" speed="13.90" length="170.70" shape="185.90,170.70 185.90,0.00"/>
    </edge>
    <edge id="ce19" from="5" to="c12" priority="-1">
        <lane id="ce19_0" index="0" speed="13.90" length="170.70" shape="204.30,676.30 375.00,676.30"/>
        <lane id="ce19_1" index="1" speed="13.90" length="170.70" shape="204.30,679.50 375.00,679.50"/>
        <lane id="ce19_2" index="2" speed="13.90" length="170.70" shape="204.30,682.70 375.00,682.70"/>
        <lane id="ce19_3" index="3" speed="13.90" length="170.70" shape="204.30,685.90 375.00,685.90"/>
    </edge>
    <edge id="ce20" from="c12" to="5" priority="-1">
        <lane id="ce20_0" index="0" speed="13.90" length="170.70" shape="375.00,698.70 204.30,698.70"/>
        <lane id="ce20_1" index="1" speed="13.90" length="170.70" shape="375.00,695.50 204.30,695.50"/>
        <lane id="ce20_2" index="2" speed="13.90" length="170.70" shape="375.00,692.30 204.30,692.30"/>
        <lane id="ce20_3" index="3" speed="13.90" length="170.70" shape="375.00,689.10 204.30,689.10"/>
    </edge>
    <edge id="ce21" from="5" to="c10" priority="-1">
        <lane id="ce21_0" index="0" speed="13.90" length="170.70" shape="198.70,704.30 198.70,875.00"/>
        <lane id="ce21_1" index="1" speed="13.90" length="170.70" shape="195.50,704.30 195.50,875.00"/>
        <lane id="ce21_2" index="2" speed="13.90" length="170.70" shape="192.30,704.30 192.30,875.00"/>
        <lane id="ce21_3" index="3" speed="13.90" length="170.70" shape="189.10,704.30 189.10,875.00"/>
    </edge>
    <edge id="ce22" from="c10" to="5" priority="-1">
        <lane id="ce22_0" index="0" speed="13.90" length="170.70" shape="176.30,875.00 176.30,704.30"/>
        <lane id="ce22_1" index="1" speed="13.90" length="170.70" shape="179.50,875.00 179.50,704.30"/>
        <lane id="ce22_2" index="2" speed="13.90" length="170.70" shape="182.70,875.00 182.70,704.30"/>
        <lane id="ce22_3" index="3" speed="13.90" length="170.70" shape="185.90,875.00 185.90,704.30"/>
    </edge>
    <edge id="ce23" from="c11" to="4" priority="-1">
        <lane id="ce23_0" index="0" speed="13.90" length="170.70" shape="448.70,0.00 448.70,170.70"/>
        <lane id="ce23_1" index="1" speed="13.90" length="170.70" shape="445.50,0.00 445.50,170.70"/>
        <lane id="ce23_2" index="2" speed="13.90" length="170.70" shape="442.30,0.00 442.30,170.70"/>
        <lane id="ce23_3" index="3" speed="13.90" length="170.70" shape="439.10,0.00 439.10,170.70"/>
    </edge>
    <edge id="ce24" from="4" to="c11" priority="-1">
        <lane id="ce24_0" index="0" speed="13.90" length="170.70" shape="426.30,170.70 426.30,0.00"/>
        <lane id="ce24_1" index="1" speed="13.90" length="170.70" shape="429.50,170.70 429.50,0.00"/>
        <lane id="ce24_2" index="2" speed="13.90" length="170.70" shape="432.70,170.70 432.70,0.00"/>
        <lane id="ce24_3" index="3" speed="13.90" length="170.70" shape="435.90,170.70 435.90,0.00"/>
    </edge>
    <edge id="ce25" from="4" to="c15" priority="-1">
        <lane id="ce25_0" index="0" speed="13.90" length="170.70" shape="454.30,176.30 625.00,176.30"/>
        <lane id="ce25_1" index="1" speed="13.90" length="170.70" shape="454.30,179.50 625.00,179.50"/>
        <lane id="ce25_2" index="2" speed="13.90" length="170.70" shape="454.30,182.70 625.00,182.70"/>
        <lane id="ce25_3" index="3" speed="13.90" length="170.70" shape="454.30,185.90 625.00,185.90"/>
    </edge>
    <edge id="ce26" from="c15" to="4" priority="-1">
        <lane id="ce26_0" index="0" speed="13.90" length="170.70" shape="625.00,198.70 454.30,198.70"/>
        <lane id="ce26_1" index="1" speed="13.90" length="170.70" shape="625.00,195.50 454.30,195.50"/>
        <lane id="ce26_2" index="2" speed="13.90" length="170.70" shape="625.00,192.30 454.30,192.30"/>
        <lane id="ce26_3" index="3" speed="13.90" length="170.70" shape="625.00,189.10 454.30,189.10"/>
    </edge>
    <edge id="ce27" from="3" to="c16" priority="-1">
        <lane id="ce27_0" index="0" speed="13.90" length="170.70" shape="454.30,426.30 625.00,426.30"/>
        <lane id="ce27_1" index="1" speed="13.90" length="170.70" shape="454.30,429.50 625.00,429.50"/>
        <lane id="ce27_2" index="2" speed="13.90" length="170.70" shape="454.30,432.70 625.00,432.70"/>
        <lane id="ce27_3" index="3" speed="13.90" length="170.70" shape="454.30,435.90 625.00,435.90"/>
    </edge>
    <edge id="ce28" from="c16" to="3" priority="-1">
        <lane id="ce28_0" index="0" speed="13.90" length="170.70" shape="625.00,448.70 454.30,448.70"/>
        <lane id="ce28_1" index="1" speed="13.90" length="170.70" shape="625.00,445.50 454.30,445.50"/>
        <lane id="ce28_2" index="2" speed="13.90" length="170.70" shape="625.00,442.30 454.30,442.30"/>
        <lane id="ce28_3" index="3" speed="13.90" length="170.70" shape="625.00,439.10 454.30,439.10"/>
    </edge>
    <edge id="ce29" from="3" to="c14" priority="-1">
        <lane id="ce29_0" index="0" speed="13.90" length="170.70" shape="448.70,454.30 448.70,625.00"/>
        <lane id="ce29_1" index="1" speed="13.90" length="170.70" shape="445.50,454.30 445.50,625.00"/>
        <lane id="ce29_2" index="2" speed="13.90" length="170.70" shape="442.30,454.30 442.30,625.00"/>
        <lane id="ce29_3" index="3" speed="13.90" length="170.70" shape="439.10,454.30 439.10,625.00"/>
    </edge>
    <edge id="ce30" from="c14" to="3" priority="-1">
        <lane id="ce30_0" index="0" speed="13.90" length="170.70" shape="426.30,625.00 426.30,454.30"/>
        <lane id="ce30_1" index="1" speed="13.90" length="170.70" shape="429.50,625.00 429.50,454.30"/>
        <lane id="ce30_2" index="2" speed="13.90" length="170.70" shape="432.70,625.00 432.70,454.30"/>
        <lane id="ce30_3" index="3" speed="13.90" length="170.70" shape="435.90,625.00 435.90,454.30"/>
    </edge>
    <edge id="e1" from="1" to="4" priority="-1">
        <lane id="e1_0" index="0" speed="13.90" length="216.40" shape="204.30,176.30 420.70,176.30"/>
        <lane id="e1_1" index="1" speed="13.90" length="216.40" shape="204.30,179.50 420.70,179.50"/>
        <lane id="e1_2" index="2" speed="13.90" length="216.40" shape="204.30,182.70 420.70,182.70"/>
        <lane id="e1_3" index="3" speed="13.90" length="216.40" shape="204.30,185.90 420.70,185.90"/>
    </edge>
    <edge id="e10" from="3" to="4" priority="-1">
        <lane id="e10_0" index="0" speed="13.90" length="216.40" shape="426.30,420.70 426.30,204.30"/>
        <lane id="e10_1" index="1" speed="13.90" length="216.40" shape="429.50,420.70 429.50,204.30"/>
        <lane id="e10_2" index="2" speed="13.90" length="216.40" shape="432.70,420.70 432.70,204.30"/>
        <lane id="e10_3" index="3" speed="13.90" length="216.40" shape="435.90,420.70 435.90,204.30"/>
    </edge>
    <edge id="e2" from="4" to="1" priority="-1">
        <lane id="e2_0" index="0" speed="13.90" length="216.40" shape="420.70,198.70 204.30,198.70"/>
        <lane id="e2_1" index="1" speed="13.90" length="216.40" shape="420.70,195.50 204.30,195.50"/>
        <lane id="e2_2" index="2" speed="13.90" length="216.40" shape="420.70,192.30 204.30,192.30"/>
        <lane id="e2_3" index="3" speed="13.90" length="216.40" shape="420.70,189.10 204.30,189.10"/>
    </edge>
    <edge id="e3" from="1" to="2" priority="-1">
        <lane id="e3_0" index="0" speed="13.90" length="216.40" shape="198.70,204.30 198.70,420.70"/>
        <lane id="e3_1" index="1" speed="13.90" length="216.40" shape="195.50,204.30 195.50,420.70"/>
        <lane id="e3_2" index="2" speed="13.90" length="216.40" shape="192.30,204.30 192.30,420.70"/>
        <lane id="e3_3" index="3" speed="13.90" length="216.40" shape="189.10,204.30 189.10,420.70"/>
    </edge>
    <edge id="e4" from="2" to="1" priority="-1">
        <lane id="e4_0" index="0" speed="13.90" length="216.40" shape="176.30,420.70 176.30,204.30"/>