<routes>
             <vType accel="1.0" decel="4.5" id="standard_car" length="5.0" minGap="2.5" maxSpeed="25" sigma="0.5" />
                    
    <trip id="0" depart="2.0" from="ce26" to="ce21" type="standard_car" departLane="random" departSpeed="10" />
    <trip id="1" depart="3.0" from="ce30" to="ce14" type="standard_car" departLane="random" departSpeed="10" />
    <trip id="2" depart="9.0" from="ce22" to="ce21" type="standard_car" departLane="random" departSpeed="10" />
    <trip id="3" depart="10.0" from="ce17" to="ce14" type="standard_car" departLane="random" departSpeed="10" />
    <trip id="4" depart="24.0" from="ce22" to="ce24" type="standard_car" departLane="random" departSpeed="10" />
    <trip id="5" depart="38.0" from="ce30" to="ce27" type="standard_car" departLane="random" departSpeed="10" />
    <trip id="6" depart="42.0" from="ce22" to="ce29" type="standard_car" departLane="random" departSpeed="10" />
    <trip id="7" depart="42.0" from="ce13" to="ce12" type="standard_car" departLane="random" departSpeed="10" />
    <trip id="8" depart="44.0" from="ce30" to="ce19" type="standard_car" departLane="random" departSpeed="10" />
    <trip id="9" depart="51.0" from="ce30" to="ce29" type="standard_car" departLane="random" departSpeed="10" />
    <trip id="10" depart="53.0" from="ce30" to="ce12" type="standard_car" departLane="random" departSpeed="10" />
    <trip id="11" depart="57.0" from="ce22" to="ce14" type="standard_car" departLane="random" departSpeed="10" />
    <trip id="12" depart="76.0" from="ce22" to="ce27" type="standard_car" departLane="random" departSpeed="10" />
    <trip id="13" depart="94.0" from="ce23" to="ce21" type="standard_car" departLane="random" departSpeed="10" />
    <trip id="14" depart="98.0" from="ce30" to="ce25" type="standard_car" departLane="random" departSpeed="10" />
    <trip id="15" depart="104.0" from="ce22" to="ce18" type="standard_car" departLane="random" departSpeed="10" />
    <trip id="16" depart="113.0" from="ce22" to="ce29" type="standard_car" departLane="random" departSpeed="10" />
    <trip id="17" depart="119.0" from="ce30" to="ce12" type="standard_car" departLane="random" departSpeed="10" />
    <trip id="18" depart="122.0" from="ce30" to="ce14" type="standard_car" departLane="random" departSpeed="10" />
    <trip id="19" depart="131.0" from="ce30" to="ce25" type="standard_car" departLane="random" departSpeed="10" />
    <trip id="20" depart="133.0" from="ce30" to="ce24" type="standard_car" departLane="random" departSpeed="10" />
    <trip id="21" depart="133.0" from="ce22" to="ce24" type="standard_car" departLane="random" departSpeed="10" />
    <trip id="22" depart="144.0" from="ce30" to="ce18" type="standard_car" departLane="random" departSpeed="10" />
    <trip id="23" depart="148.0" from="ce28" to="ce16" type="standard_car" departLane="random" departSpeed="10" />
    <trip id="24" depart="148.0" from="ce22" to="ce14" type="standard_car" departLane="random" departSpeed="10" />
    <trip id="25" depart="165.0" from="ce30" to="ce27" type="standard_car" departLane="random" departSpeed="10" />
    <trip id="26" depart="171.0" from="ce30" to="ce25" type="standard_car" departLane="random" departSpeed="10" />
    <trip id="27" depart="177.0" from="ce17" to="ce14" type="standard_car" departLane="random" departSpeed="10" />
    <trip id="28" depart="178.0" from="ce22" to="ce14" type="standard_car" departLane="random" departSpeed="10" />
    <trip id="29" depart="179.0" from="ce30" to="ce12" type="standard_car" departLane="random" departSpeed="10" />
    <trip id="30" depart="195.0" from="ce22" to="ce24" type="standard_car" departLane="random" departSpeed="10" />
    <trip id="31" depart="199.0" from="ce17" to="ce14" type="standard_car" departLane="random" departSpeed="10" />
    <trip id="32" depart="214.0" from="ce17" to="ce14" type="standard_car" departLane="random" departSpeed="10" />
    <trip id="33" depart="218.0" from="ce15" to="ce25" type="standard_car" departLane="random" departSpeed="10" />
    <trip id="34" depart="236.0" from="ce17" to="ce18" type="standard_car" departLane="random" departSpeed="10" />
    <trip id="35" depart="243.0" from="ce17" to="ce16" type="standard_car" departLane="random" departSpeed="10" />
    <trip id="36" depart="256.0" from="ce17" to="ce18" type="standard_car" departLane="random" departSpeed="10" />
    <trip id="37" depart="272.0" from="ce22" to="ce25" type="standard_car" departLane="random" departSpeed="10" />
    <trip id="38" depart="277.0" from="ce13" to="ce29" type="standard_car" departLane="random" departSpeed="10" />
    <trip id="39" depart="287.0" from="ce20" to="ce18" type="standard_car" departLane="random" departSpeed="10" />
    <trip id="40" depart="290.0" from="ce11" to="ce24" type="standard_car" departLane="random" departSpeed="10" />
    <trip id="41" depart="304.0" from="ce30" to="ce14" type="standard_car" departLane="random" departSpeed="10" />
    <trip id="42" depart="309.0" from="ce17" to="ce18" type="standard_car" departLane="random" departSpeed="10" />
    <trip id="43" depart="313.0" from="ce13" to="ce16" type="standard_car" departLane="random" departSpeed="10" />
    <trip id="44" depart="313.0" from="ce30" to="ce24" type="standard_car" departLane="random" departSpeed="10" />
    <trip id="45" depart="322.0" from="ce22" to="ce24" type="standard_car" departLane="random" departSpeed="10" />
    <trip id="46" depart="328.0" from="ce30" to="ce12" type="standard_car" departLane="random" departSpeed="10" />
    <trip id="47" depart="330.0" from="ce23" to="ce27" type="standard_car" departLane="random" departSpeed="10" />
    <trip id="48" depart="332.0" from="ce22" to="ce21" type="standard_car" departLane="random" departSpeed="10" />
    <trip id="49" depart="338.0" from="ce30" to="ce14" type="standard_car" departLane="random" departSpeed="10" />
    <trip id="50" depart="344.0" from="ce22" to="ce27" type="standard_car" departLane="random" departSpeed="10" />
    <trip id="51" depart="362.0" from="ce20" to="ce14" type="standard_car" departLane="random" departSpeed="10" />
    <trip id="52" depart="363.0" from="ce11" to="ce18" type="standard_car" departLane="random" departSpeed="10" />
    <trip id="53" depart="391.0" from="ce23" to="ce14" type="standard_car" departLane="random" departSpeed="10" />
    <trip id="54" depart="395.0" from="ce11" to="ce16" type="standard_car" departLane="random" departSpeed="10" />
    <trip id="55" depart="400.0" from="ce26" to="ce14" type="standard_car" departLane="random" departSpeed="10" />
    <trip id="56" depart="405.0" from="ce30" to="ce25" type="standard_car" departLane="random" departSpeed="10" />
    <trip id="57" depart="405.0" from="ce22" to="ce12" type="standard_car" departLane="random" departSpeed="10" />
    <trip id="58" depart="412.0" from="ce30" to="ce18" type="standard_car" departLane="random" departSpeed="10" />
    <trip id="59" depart="417.0" from="ce17" to="ce19" type="standard_car" departLane="random" departSpeed="10" />
    <trip id="60" depart="418.0" from="ce30" to="ce12" type="standard_car" departLane="random" departSpeed="10" />
    <trip id="61" depart="427.0" from="ce30" to="ce25" type="standard_car" departLane="random" departSpeed="10" />
    <trip id="62" depart="431.0" from="ce22" to="ce25" type="standard_car" departLane="random" departSpeed="10" />
    <trip id="63" depart="436.0" from="ce30" to="ce25" type="standard_car" departLane="random" departSpeed="10" />
    <trip id="64" depart="437.0" from="ce11" to="ce29" type="standard_car" departLane="random" departSpeed="10" />
    <trip id="65" depart="438.0" from="ce26" to="ce21" type="standard_car" departLane="random" departSpeed="10" />
    <trip id="66" depart="448.0" from="ce22" to="ce24" type="standard_car" departLane="random" departSpeed="10" />
    <trip id="67" depart="449.0" from="ce13" to="ce29" type="standard_car" departLane="random" departSpeed="10" />
    <trip id="68" depart="458.0" from="ce11" to="ce18" type="standard_car" departLane="random" departSpeed="10" />
    <trip id="69" depart="463.0" from="ce15" to="ce21" type="standard_car" departLane="random" departSpeed="10" />
    <trip id="70" depart="466.0" from="ce15" to="ce24" type="standard_car" departLane="random" departSpeed="10" />
    <trip id="71" depart="478.0" from="ce30" to="ce29" type="standard_car" departLane="random" departSpeed="10" />
    <trip id="72" depart="480.0" from="ce15" to="ce24" type="standard_car" departLane="random" departSpeed="10" />
    <trip id="73" depart="485.0" from="ce22" to="ce12" type="standard_car" departLane="random" departSpeed="10" />
    <trip id="74" depart="499.0" from="ce30" to="ce21" type="standard_car" departLane="random" departSpeed="10" />
    <trip id="75" depart="501.0" from="ce22" to="ce16" type="standard_car" departLane="random" departSpeed="10" />
    <trip id="76" depart="516.0" from="ce11" to="ce19" type="standard_car" departLane="random" departSpeed="10" />
    <trip id="77" depart="519.0" from="ce20" to="ce16" type="standard_car" departLane="random" departSpeed="10" />
    <trip id="78" depart="521.0" from="ce22" to="ce14" type="standard_car" departLane="random" departSpeed="10" />
    <trip id="79" depart="522.0" from="ce23" to="ce21" type="standard_car" departLane="random" departSpeed="10" />
    <trip id="80" depart="532.0" from="ce30" to="ce19" type="standard_car" departLane="random" departSpeed="10" />
    <trip id="81" depart="533.0" from="ce13" to="ce18" type="standard_car" departLane="random" departSpeed="10" />
    <trip id="82" depart="540.0" from="ce30" to="ce29" type="standard_car" departLane="random" departSpeed="10" />
    <trip id="83" depart="554.0" from="ce30" to="ce27" type="standard_car" departLane="random" departSpeed="10" />
    <trip id="84" depart="557.0" from="ce30" to="ce25" type="standard_car" departLane="random" departSpeed="10" />
    <trip id="85" depart="576.0" from="ce30" to="ce27" type="standard_car" departLane="random" departSpeed="10" />
    <trip id="86" depart="582.0" from="ce20" to="ce24" type="standard_car" departLane="random" departSpeed="10" />
    <trip id="87" depart="583.0" from="ce30" to="ce19" type="standard_car" departLane="random" departSpeed="10" />
    <trip id="88" depart="586.0" from="ce28" to="ce12" type="standard_car" departLane="random" departSpeed="10" />
    <trip id="89" depart="590.0" from="ce20" to="ce16" type="standard_car" departLane="random" departSpeed="10" />
    <trip id="90" depart="598.0" from="ce30" to="ce21" type="standard_car" departLane="random" departSpeed="10" />
    <trip id="91" depart="604.0" from="ce22" to="ce18" type="standard_car" departLane="random" departSpeed="10" />
    <trip id="92" depart="606.0" from="ce22" to="ce16" type="standard_car" departLane="random" departSpeed="10" />
    <trip id="93" depart="611.0" from="ce15" to="ce18" type="standard_car" departLane="random" departSpeed="10" />
    <trip id="94" depart="618.0" from="ce30" to="ce12" type="standard_car" departLane="random" departSpeed="10" />
    <trip id="95" depart="618.0" from="ce22" to="ce14" type="standard_car" departLane="random" departSpeed="10" />
    <trip id="96" depart="626.0" from="ce22" to="ce21" type="standard_car" departLane="random" departSpeed="10" />
    <trip id="97" depart="630.0" from="ce13" to="ce29" type="standard_car" departLane="random" departSpeed="10" />
    <trip id="98" depart="640.0" from="ce22" to="ce12" type="standard_car" departLane="random" departSpeed="10" />
    <trip id="99" depart="657.0" from="ce30" to="ce27" type="standard_car" departLane="random" departSpeed="10" />
    <trip id="100" depart="668.0" from="ce28" to="ce29" type="standard_car" departLane="random" departSpeed="10" />
    <trip id="101" depart="682.0" from="ce22" to="ce25" type="standard_car" departLane="random" departSpeed="10" />
    <trip id="102" depart="701.0" from="ce15" to="ce21" type="standard_car" departLane="random" departSpeed="10" />
    <trip id="103" depart="702.0" from="ce20" to="ce27" type="standard_car" departLane="random" departSpeed="10" />
    <trip id="104" depart="703.0" from="ce30" to="ce14" type="standard_car" departLane="random" departSpeed="10" />
    <trip id="105" depart="706.0" from="ce30" to="ce19" type="standard_car" departLane="random" departSpeed="10" />
    <trip id="106" depart="706.0" from="ce30" to="ce14" type="standard_car" departLane="random" departSpeed="10" />
    <trip id="107" depart="707.0" from="ce11" to="ce24" type="standard_car" departLane="random" departSpeed="10" />
    <trip id="108" depart="710.0" from="ce30" to="ce21" type="standard_car" departLane="random" departSpeed="10" />
    <trip id="109" depart="712.0" from="ce22" to="ce29" type="standard_car" departLane="random" departSpeed="10" />
    <trip id="110" depart="718.0" from="ce30" to="ce18" type="standard_car" departLane="random" departSpeed="10" />
    <trip id="111" depart="727.0" from="ce23" to="ce29" type="standard_car" departLane="random" departSpeed="10" />
    <trip id="112" depart="730.0" from="ce11" to="ce21" type="standard_car" departLane="random" departSpeed="10" />
    <trip id="113" depart="744.0" from="ce30" to="ce18" type="standard_car" departLane="random" departSpeed="10" />
    <trip id="114" depart="744.0" from="ce15" to="ce24" type="standard_car" departLane="random" departSpeed="10" />
    <trip id="115" depart="777.0" from="ce22" to="ce12" type="standard_car" departLane="random" departSpeed="10" />
    <trip id="116" depart="784.0" from="ce28" to="ce24" type="standard_car" departLane="random" departSpeed="10" />
    <trip id="117" depart="799.0" from="ce20" to="ce21" type="standard_car" departLane="random" departSpeed="10" />
    <trip id="118" depart="822.0" from="ce30" to="ce12" type="standard_car" departLane="random" departSpeed="10" />
    <trip id="119" depart="830.0" from="ce22" to="ce24" type="standard_car" departLane="random" departSpeed="10" />
    <trip id="120" depart="838.0" from="ce22" to="ce16" type="standard_car" departLane="random" departSpeed="10" />
    <trip id="121" depart="851.0" from="ce15" to="ce21" type="standard_car" departLane="random" departSpeed="10" />
    <trip id="122" depart="856.0" from="ce15" to="ce19" type="standard_car" departLane="random" departSpeed="10" />
    <trip id="123" depart="860.0" from="ce11" to="ce18" type="standard_car" departLane="random" departSpeed="10" />
    <trip id="124" depart="863.0" from="ce22" to="ce21" type="standard_car" departLane="random" departSpeed="10" />
    <trip id="125" depart="879.0" from="ce22" to="ce18" type="standard_car" departLane="random" departSpeed="10" />
    <trip id="126" depart="899.0" from="ce26" to="ce14" type="standard_car" departLane="random" departSpeed="10" />
    <trip id="127" depart="900.0" from="ce30" to="ce18" type="standard_car" departLane="random" departSpeed="10" />
    <trip id="128" depart="902.0" from="ce26" to="ce18" type="standard_car" departLane="random" departSpeed="10" />
    <trip id="129" depart="911.0" from="ce30" to="ce29" type="standard_car" departLane="random" departSpeed="10" />
    <trip id="130" depart="911.0" from="ce30" to="ce24" type="standard_car" departLane="random" departSpeed="10" />
    <trip id="131" depart="919.0" from="ce22" to="ce18" type="standard_car" departLane="random" departSpeed="10" />
    <trip id="132" depart="932.0" from="ce30" to="ce25" type="standard_car" departLane="random" departSpeed="10" />
    <trip id="133" depart="944.0" from="ce15" to="ce18" type="standard_car" departLane="random" departSpeed="10" />
    <trip id="134" depart="949.0" from="ce22" to="ce14" type="standard_car" departLane="random" departSpeed="10" />
    <trip id="135" depart="952.0" from="ce26" to="ce12" type="standard_car" departLane="random" departSpeed="10" />
    <trip id="136" depart="966.0" from="ce15" to="ce29" type="standard_car" departLane="random" departSpeed="10" />
    <trip id="137" depart="971.0" from="ce30" to="ce19" type="standard_car" departLane="random" departSpeed="10" />
    <trip id="138" depart="1016.0" from="ce22" to="ce14" type="standard_car" departLane="random" departSpeed="10" />
    <trip id="139" depart="1019.0" from="ce30" to="ce12" type="standard_car" departLane="random" departSpeed="10" />
    <trip id="140" depart="1020.0" from="ce30" to="ce24" type="standard_car" departLane="random" departSpeed="10" />
    <trip id="141" depart="1024.0" from="ce22" to="ce18" type="standard_car" departLane="random" departSpeed="10" />
    <trip id="142" depart="1025.0" from="ce13" to="ce21" type="standard_car" departLane="random" departSpeed="10" />
    <trip id="143" depart="1033.0" from="ce20" to="ce24" type="standard_car" departLane="random" departSpeed="10" />
    <trip id="144" depart="1033.0" from="ce15" to="ce18" type="standard_car" departLane="random" departSpeed="10" />
    <trip id="145" depart="1043.0" from="ce30" to="ce25" type="standard_car" departLane="random" departSpeed="10" />
    <trip id="146" depart="1044.0" from="ce22" to="ce19" type="standard_car" departLane="random" departSpeed="10" />
    <trip id="147" depart="1054.0" from="ce17" to="ce14" type="standard_car" departLane="random" departSpeed="10" />
    <trip id="148" depart="1060.0" from="ce30" to="ce12" type="standard_car" departLane="random" departSpeed="10" />
    <trip id="149" depart="1062.0" from="ce22" to="ce18" type="standard_car" departLane="random" departSpeed="10" />
    <trip id="150" depart="1071.0" from="ce30" to="ce18" type="standard_car" departLane="random" departSpeed="10" />
    <trip id="151" depart="1073.0" from="ce17" to="ce19" type="standard_car" departLane="random" departSpeed="10" />
    <trip id="152" depart="1077.0" from="ce30" to="ce27" type="standard_car" departLane="random" departSpeed="10" />
    <trip id="153" depart="1085.0" from="ce23" to="ce29" type="standard_car" departLane="random" departSpeed="10" />
    <trip id="154" depart="1095.0" from="ce30" to="ce29" type="standard_car" departLane="random" departSpeed="10" />
    <trip id="155" depart="1098.0" from="ce22" to="ce24" type="standard_car" departLane="random" departSpeed="10" />
    <trip id="156" depart="1103.0" from="ce13" to="ce24" type="standard_car" departLane="random" departSpeed="10" />
    <trip id="157" depart="1108.0" from="ce30" to="ce12" type="standard_car" departLane="random" departSpeed="10" />
    <trip id="158" depart="1114.0" from="ce13" to="ce25" type="standard_car" departLane="random" departSpeed="10" />
    <trip id="159" depart="1116.0" from="ce30" to="ce14" type="standard_car" departLane="random" departSpeed="10" />
    <trip id="160" depart="1119.0" from="ce23" to="ce19" type="standard_car" departLane="random" departSpeed="10" />
    <trip id="161" depart="1130.0" from="ce20" to="ce24" type="standard_car" departLane="random" departSpeed="10" />
    <trip id="162" depart="1138.0" from="ce22" to="ce14" type="standard_car" departLane="random" departSpeed="10" />
    <trip id="163" depart="1140.0" from="ce22" to="ce19" type="standard_car" departLane="random" departSpeed="10" />
    <trip id="164" depart="1154.0" from="ce22" to="ce21" type="standard_car" departLane="random" departSpeed="10" />
    <trip id="165" depart="1171.0" from="ce22" to="ce19" type="standard_car" departLane="random" departSpeed="10" />
    <trip id="166" depart="1172.0" from="ce22" to="ce18" type="standard_car" departLane="random" departSpeed="10" />
    <trip id="167" depart="1175.0" from="ce30" to="ce21" type="standard_car" departLane="random" departSpeed="10" />
    <trip id="168" depart="1181.0" from="ce30" to="ce14" type="standard_car" departLane="random" departSpeed="10" />
    <trip id="169" depart="1184.0" from="ce30" to="ce12" type="standard_car" departLane="random" departSpeed="10" />
    <trip id="170" depart="1201.0" from="ce11" to="ce18" type="standard_car" departLane="random" departSpeed="10" />
    <trip id="171" depart="1201.0" from="ce30" to="ce29" type="standard_car" departLane="random" departSpeed="10" />
    <trip id="172" depart="1215.0" from="ce22" to="ce24" type="standard_car" departLane="random" departSpeed="10" />
    <trip id="173" depart="1224.0" from="ce30" to="ce18" type="standard_car" departLane="random" departSpeed="10" />
    <trip id="174" depart="1231.0" from="ce17" to="ce21" type="standard_car" departLane="random" departSpeed="10" />
    <trip id="175" depart="1233.0" from="ce30" to="ce24" type="standard_car" departLane="random" departSpeed="10" />
    <trip id="176" depart="1234.0" from="ce30" to="ce12" type="standard_car" departLane="random" departSpeed="10" />
    <trip id="177" depart="1279.0" from="ce17" to="ce21" type="standard_car" departLane="random" departSpeed="10" />
    <trip id="178" depart="1296.0" from="ce30" to="ce16" type="standard_car" departLane="random" departSpeed="10" />
    <trip id="179" depart="1304.0" from="ce23" to="ce19" type="standard_car" departLane="random" departSpeed="10" />
    <trip id="180" depart="1308.0" from="ce26" to="ce21" type="standard_car" departLane="random" departSpeed="10" />
    <trip id="181" depart="1317.0" from="ce22" to="ce29" type="standard_car" departLane="random" departSpeed="10" />
    <trip id="182" depart="1322.0" from="ce23" to="ce21" type="standard_car" departLane="random" departSpeed="10" />
    <trip id="183" depart="1324.0" from="ce28" to="ce21" type="standard_car" departLane="random" departSpeed="10" />
    <trip id="184" depart="1328.0" from="ce30" to="ce18" type="standard_car" departLane="random" departSpeed="10" />
    <trip id="185" depart="1329.0" from="ce15" to="ce18" type="standard_car" departLane="random" departSpeed="10" />
    <trip id="186" depart="1333.0" from="ce22" to="ce24" type="standard_car" departLane="random" departSpeed="10" />
    <trip id="187" depart="1338.0" from="ce30" to="ce18" type="standard_car" departLane="random" departSpeed="10" />
    <trip id="188" depart="1340.0" from="ce30" to="ce18" type="standard_car" departLane="random" departSpeed="10" />
    <trip id="189" depart="1343.0" from="ce22" to="ce27" type="standard_car" departLane="random" departSpeed="10" />
    <trip id="190" depart="1351.0" from="ce22" to="ce19" type="standard_car" departLane="random" departSpeed="10" />
    <trip id="191" depart="1366.0" from="ce13" to="ce27" type="standard_car" departLane="random" departSpeed="10" />
    <trip id="192" depart="1386.0" from="ce22" to="ce24" type="standard_car" departLane="random" departSpeed="10" />
    <trip id="193" depart="1390.0" from="ce30" to="ce12" type="standard_car" departLane="random" departSpeed="10" />
    <trip id="194" depart="1390.0" from="ce17" to="ce25" type="standard_car" departLane="random" departSpeed="10" />
    <trip id="195" depart="1407.0" from="ce30" to="ce25" type="standard_car" departLane="random" departSpeed="10" />
    <trip id="196" depart="1417.0" from="ce17" to="ce27" type="standard_car" departLane="random" departSpeed="10" />
    <trip id="197" depart="1429.0" from="ce17" to="ce29" type="standard_car" departLane="random" departSpeed="10" />
    <trip id="198" depart="1430.0" from="ce30" to="ce21" type="standard_car" departLane="random" departSpeed="10" />
    <trip id="199" depart="1460.0" from="ce30" to="ce18" type="standard_car" departLane="random" departSpeed="10" />
    <trip id="200" depart="1460.0" from="ce22" to="ce18" type="standard_car" departLane="random" departSpeed="10" />
    <trip id="201" depart="1470.0" from="ce15" to="ce18" type="standard_car" departLane="random" departSpeed="10" />
    <trip id="202" depart="1471.0" from="ce30" to="ce12" type="standard_car" departLane="random" departSpeed="10" />
    <trip id="203" depart="1472.0" from="ce30" to="ce19" type="standard_car" departLane="random" departSpeed="10" />
    <trip id="204" depart="1482.0" from="ce26" to="ce12" type="standard_car" departLane="random" departSpeed="10" />
    <trip id="205" depart="1490.0" from="ce22" to="ce19" type="standard_car" departLane="random" departSpeed="10" />
    <trip id="206" depart="1500.0" from="ce22" to="ce19" type="standard_car" departLane="random" departSpeed="10" />
    <trip id="207" depart="1501.0" from="ce11" to="ce18" type="standard_car" departLane="random" departSpeed="10" />
    <trip id="208" depart="1502.0" from="ce22" to="ce18" type="standard_car" departLane="random" departSpeed="10" />
    <trip id="209" depart="1505.0" from="ce30" to="ce19" type="standard_car" departLane="random" departSpeed="10" />
    <trip id="210" depart="1506.0" from="ce30" to="ce25" type="standard_car" departLane="random" departSpeed="10" />
    <trip id="211" depart="1516.0" from="ce13" to="ce21" type="standard_car" departLane="random" departSpeed="10" />
    <trip id="212" depart="1526.0" from="ce23" to="ce12" type="standard_car" departLane="random" departSpeed="10" />
    <trip id="213" depart="1529.0" from="ce22" to="ce24" type="standard_car" departLane="random" departSpeed="10" />
    <trip id="214" depart="1532.0" from="ce17" to="ce29" type="standard_car" departLane="random" departSpeed="10" />
    <trip id="215" depart="1534.0" from="ce30" to="ce19" type="standard_car" departLane="random" departSpeed="10" />
    <trip id="216" depart="1538.0" from="ce13" to="ce19" type="standard_car" departLane="random" departSpeed="10" />
    <trip id="217" depart="1540.0" from="ce13" to="ce19" type="standard_car" departLane="random" departSpeed="10" />
    <trip id="218" depart="1545.0" from="ce30" to="ce12" type="standard_car" departLane="random" departSpeed="10" />
    <trip id="219" depart="1553.0" from="ce30" to="ce18" type="standard_car" departLane="random" departSpeed="10" />
    <trip id="220" depart="1562.0" from="ce22" to="ce19" type="standard_car" departLane="random" departSpeed="10" />
    <trip id="221" depart="1569.0" from="ce30" to="ce16" type="standard_car" departLane="random" departSpeed="10" />
    <trip id="222" depart="1570.0" from="ce22" to="ce19" type="standard_car" departLane="random" departSpeed="10" />
    <trip id="223" depart="1572.0" from="ce30" to="ce19" type="standard_car" departLane="random" departSpeed="10" />
    <trip id="224" depart="1574.0" from="ce17" to="ce19" type="standard_car" departLane="random" departSpeed="10" />
    <trip id="225" depart="1582.0" from="ce30" to="ce21" type="standard_car" departLane="random" departSpeed="10" />
    <trip id="226" depart="1600.0" from="ce26" to="ce24" type="standard_car" departLane="random" departSpeed="10" />
    <trip id="227" depart="1602.0" from="ce22" to="ce25" type="standard_car" departLane="random" departSpeed="10" />
    <trip id="228" depart="1602.0" from="ce30" to="ce18" type="standard_car" departLane="random" departSpeed="10" />
    <trip id="229" depart="1607.0" from="ce22" to="ce27" type="standard_car" departLane="random" departSpeed="10" />
    <trip id="230" depart="1620.0" from="ce11" to="ce24" type="standard_car" departLane="random" departSpeed="10" />
    <trip id="231" depart="1620.0" from="ce30" to="ce16" type="standard_car" departLane="random" departSpeed="10" />
    <trip id="232" depart="1639.0" from="ce23" to="ce21" type="standard_car" departLane="random" departSpeed="10" />
    <trip id="233" depart="1640.0" from="ce22" to="ce27" type="standard_car" departLane="random" departSpeed="10" />
    <trip id="234" depart="1643.0" from="ce15" to="ce29" type="standard_car" departLane="random" departSpeed="10" />
    <trip id="235" depart="1644.0" from="ce30" to="ce16" type="standard_car" departLane="random" departSpeed="10" />
    <trip id="236" depart="1648.0" from="ce30" to="ce12" type="standard_car" departLane="random" departSpeed="10" />
    <trip id="237" depart="1657.0" from="ce15" to="ce18" type="standard_car" departLane="random" departSpeed="10" />
    <trip id="238" depart="1664.0" from="ce30" to="ce18" type="standard_car" departLane="random" departSpeed="10" />
    <trip id="239" depart="1684.0" from="ce11" to="ce21" type="standard_car" departLane="random" departSpeed="10" />
    <trip id="240" depart="1696.0" from="ce22" to="ce14" type="standard_car" departLane="random" departSpeed="10" />
    <trip id="241" depart="1710.0" from="ce23" to="ce25" type="standard_car" departLane="random" departSpeed="10" />
    <trip id="242" depart="1731.0" from="ce13" to="ce29" type="standard_car" departLane="random" departSpeed="10" />
    <trip id="243" depart="1741.0" from="ce22" to="ce21" type="standard_car" departLane="random" departSpeed="10" />
    <trip id="244" depart="1742.0" from="ce30" to="ce24" type="standard_car" departLane="random" departSpeed="10" />
    <trip id="245" depart="1747.0" from="ce13" to="ce14" type="standard_car" departLane="random" departSpeed="10" />
    <trip id="246" depart="1748.0" from="ce30" to="ce25" type="standard_car" departLane="random" departSpeed="10" />
    <trip id="247" depart="1772.0" from="ce15" to="ce24" type="standard_car" departLane="random" departSpeed="10" />
    <trip id="248" depart="1781.0" from="ce30" to="ce14" type="standard_car" departLane="random" departSpeed="10" />
    <trip id="249" depart="1781.0" from="ce22" to="ce14" type="standard_car" departLane="random" departSpeed="10" />
    <trip id="250" depart="1799.0" from="ce11" to="ce18" type="standard_car" departLane="random" departSpeed="10" />
    <trip id="251" depart="1818.0" from="ce15" to="ce27" type="standard_car" departLane="random" departSpeed="10" />
    <trip id="252" depart="1823.0" from="ce22" to="ce24" type="standard_car" departLane="random" departSpeed="10" />
    <trip id="253" depart="1828.0" from="ce13" to="ce21" type="standard_car" departLane="random" departSpeed="10" />
    <trip id="254" depart="1828.0" from="ce17" to="ce29" type="standard_car" departLane="random" departSpeed="10" />
    <trip id="255" depart="1851.0" from="ce22" to="ce18" type="standard_car" departLane="random" departSpeed="10" />
    <trip id="256" depart="1863.0" from="ce30" to="ce27" type="standard_car" departLane="random" departSpeed="10" />