<routes>
        <vType accel="1.0" decel="4.5" id="standard_car" length="5.0" minGap="4" maxSpeed="25" sigma="0.5" />
        
        <route id="W_N" edges="W2TL TL2N"/>
        <route id="W_E" edges="W2TL TL2E"/>
        <route id="W_S" edges="W2TL TL2S"/>
        <route id="N_W" edges="N2TL TL2W"/>
        <route id="N_E" edges="N2TL TL2E"/>
        <route id="N_S" edges="N2TL TL2S"/>
        <route id="E_W" edges="E2TL TL2W"/>
        <route id="E_N" edges="E2TL TL2N"/>
        <route id="E_S" edges="E2TL TL2S"/>
        <route id="S_W" edges="S2TL TL2W"/>
        <route id="S_N" edges="S2TL TL2N"/>
        <route id="S_E" edges="S2TL TL2E"/>
    <vehicle id="0" type="standard_car" route="S_N" depart="31" departLane="1" departSpeed="10" />
    <vehicle id="1" type="standard_car" route="S_N" depart="31" departLane="1" departSpeed="10" />
    <vehicle id="2" type="standard_car" route="S_N" depart="31" departLane="1" departSpeed="10" />
    <vehicle id="3" type="standard_car" route="N_S" depart="31" departLane="1" departSpeed="10" />
    <vehicle id="4" type="standard_car" route="N_S" depart="31" departLane="1" departSpeed="10" />
    <vehicle id="5" type="standard_car" route="S_N" depart="31" departLane="1" departSpeed="10" />
    <vehicle id="6" type="standard_car" route="N_S" depart="33" departLane="1" departSpeed="10" />
    <vehicle id="7" type="standard_car" route="N_S" depart="33" departLane="1" departSpeed="10" />
    <vehicle id="8" type="standard_car" route="N_S" depart="43" departLane="1" departSpeed="10" />
    <vehicle id="9" type="standard_car" route="E_W" depart="74" departLane="1" departSpeed="10" />
    <vehicle id="10" type="standard_car" route="E_W" depart="74" departLane="1" departSpeed="10" />
    <vehicle id="11" type="standard_car" route="W_E" depart="74" departLane="1" departSpeed="10" />
    <vehicle id="12" type="standard_car" route="W_E" depart="74" departLane="1" departSpeed="10" />
    <vehicle id="13" type="standard_car" route="W_E" depart="75" departLane="1" departSpeed="10" />
    <vehicle id="14" type="standard_car" route="W_E" depart="76" departLane="1" departSpeed="10" />
    <vehicle id="15" type="standard_car" route="E_W" depart="76" departLane="1" departSpeed="10" />
    <vehicle id="16" type="standard_car" route="W_S" depart="76" departLane="1" departSpeed="10" />
    <vehicle id="17" type="standard_car" route="E_W" depart="77" departLane="1" departSpeed="10" />
    <vehicle id="18" type="standard_car" route="W_E" depart="78" departLane="1" departSpeed="10" />
    <vehicle id="19" type="standard_car" route="W_E" depart="88" departLane="1" departSpeed="10" />
    <vehicle id="20" type="standard_car" route="S_N" depart="99" departLane="1" departSpeed="10" />
    <vehicle id="21" type="standard_car" route="S_N" depart="99" departLane="1" departSpeed="10" />
    <vehicle id="22" type="standard_car" route="S_N" depart="99" departLane="1" departSpeed="10" />
    <vehicle id="23" type="standard_car" route="S_N" depart="99" departLane="1" departSpeed="10" />
    <vehicle id="24" type="standard_car" route="N_S" depart="100" departLane="1" departSpeed="10" />
    <vehicle id="25" type="standard_car" route="N_S" depart="100" departLane="1" departSpeed="10" />
    <vehicle id="26" type="standard_car" route="N_S" depart="102" departLane="1" departSpeed="10" />
    <vehicle id="27" type="standard_car" route="N_S" depart="102" departLane="1" departSpeed="10" />
    <vehicle id="28" type="standard_car" route="N_S" depart="103" departLane="1" departSpeed="10" />
    <vehicle id="29" type="standard_car" route="N_S" depart="103" departLane="1" departSpeed="10" />
    <vehicle id="30" type="standard_car" route="N_S" depart="105" departLane="1" departSpeed="10" />
    <vehicle id="31" type="standard_car" route="S_N" depart="105" departLane="1" departSpeed="10" />
    <vehicle id="32" type="standard_car" route="S_N" depart="105" departLane="1" departSpeed="10" />
    <vehicle id="33" type="standard_car" route="N_S" depart="107" departLane="1" departSpeed="10" />
    <vehicle id="34" type="standard_car" route="N_S" depart="107" departLane="1" departSpeed="10" />
    <vehicle id="35" type="standard_car" route="W_E" depart="143" departLane="1" departSpeed="10" />
    <vehicle id="36" type="standard_car" route="W_E" depart="143" departLane="1" departSpeed="10" />
    <vehicle id="37" type="standard_car" route="E_W" depart="143" departLane="1" departSpeed="10" />
    <vehicle id="38" type="standard_car" route="W_E" depart="144" departLane="1" departSpeed="10" />
    <vehicle id="39" type="standard_car" route="W_E" depart="145" departLane="1" departSpeed="10" />
    <vehicle id="40" type="standard_car" route="W_E" depart="146" departLane="1" departSpeed="10" />
    <vehicle id="41" type="standard_car" route="W_E" depart="146" departLane="1" departSpeed="10" />
    <vehicle id="42" type="standard_car" route="N_S" depart="169" departLane="1" departSpeed="10" />
    <vehicle id="43" type="standard_car" route="N_S" depart="175" departLane="1" departSpeed="10" />
    <vehicle id="44" type="standard_car" route="N_S" depart="175" departLane="1" departSpeed="10" />
    <vehicle id="45" type="standard_car" route="S_N" depart="180" departLane="1" departSpeed="10" />
    <vehicle id="46" type="standard_car" route="S_N" depart="180" departLane="1" departSpeed="10" />
    <vehicle id="47" type="standard_car" route="S_N" depart="182" departLane="1" departSpeed="10" />
    <vehicle id="48" type="standard_car" route="S_N" depart="182" departLane="1" departSpeed="10" />
    <vehicle id="49" type="standard_car" route="N_S" depart="184" departLane="1" departSpeed="10" />
    <vehicle id="50" type="standard_car" route="W_E" depart="212" departLane="1" departSpeed="10" />
    <vehicle id="51" type="standard_car" route="E_W" depart="212" departLane="1" departSpeed="10" />
    <vehicle id="52" type="standard_car" route="E_W" depart="212" departLane="1" departSpeed="10" />
    <vehicle id="53" type="standard_car" route="E_W" depart="213" departLane="1" departSpeed="10" />
    <vehicle id="54" type="standard_car" route="E_W" depart="214" departLane="1" departSpeed="10" />
    <vehicle id="55" type="standard_car" route="E_W" depart="215" departLane="1" departSpeed="10" />
    <vehicle id="56" type="standard_car" route="E_W" depart="218" departLane="1" departSpeed="10" />
    <vehicle id="57" type="standard_car" route="S_N" depart="238" departLane="1" departSpeed="10" />
    <vehicle id="58" type="standard_car" route="S_N" depart="238" departLane="1" departSpeed="10" />
    <vehicle id="59" type="standard_car" route="W_S" depart="279" departLane="1" departSpeed="10" />
    <vehicle id="60" type="standard_car" route="W_E" depart="281" departLane="1" departSpeed="10" />
    <vehicle id="61" type="standard_car" route="W_S" depart="281" departLane="1" departSpeed="10" />
    <vehicle id="62" type="standard_car" route="W_E" depart="284" departLane="1" departSpeed="10" />
    <vehicle id="63" type="standard_car" route="W_E" depart="284" departLane="1" departSpeed="10" />
    <vehicle id="64" type="standard_car" route="W_E" depart="285" departLane="1" departSpeed="10" />
    <vehicle id="65" type="standard_car" route="W_S" depart="286" departLane="1" departSpeed="10" />
    <vehicle id="66" type="standard_car" route="N_S" depart="305" departLane="1" departSpeed="10" />
    <vehicle id="67" type="standard_car" route="S_N" depart="307" departLane="1" departSpeed="10" />
    <vehicle id="68" type="standard_car" route="S_N" depart="307" departLane="1" departSpeed="10" />
    <vehicle id="69" type="standard_car" route="S_N" depart="308" departLane="1" departSpeed="10" />
    <vehicle id="70" type="standard_car" route="S_N" depart="308" departLane="1" departSpeed="10" />
    <vehicle id="71" type="standard_car" route="W_E" depart="350" departLane="1" departSpeed="10" />
    <vehicle id="72" type="standard_car" route="W_E" depart="350" departLane="1" departSpeed="10" />
    <vehicle id="73" type="standard_car" route="W_E" depart="352" departLane="1" departSpeed="10" />
    <vehicle id="74" type="standard_car" route="W_E" depart="352" departLane="1" departSpeed="10" />
    <vehicle id="75" type="standard_car" route="W_E" depart="353" departLane="1" departSpeed="10" />
    <vehicle id="76" type="standard_car" route="W_E" depart="353" departLane="1" departSpeed="10" />
    <vehicle id="77" type="standard_car" route="W_E" depart="355" departLane="1" departSpeed="10" />
    <vehicle id="78" type="standard_car" route="W_E" depart="363" departLane="1" departSpeed="10" />
    <vehicle id="79" type="standard_car" route="S_N" depart="376" departLane="1" departSpeed="10" />
    <vehicle id="80" type="standard_car" route="S_N" depart="376" departLane="1" departSpeed="10" />
    <vehicle id="81" type="standard_car" route="S_N" depart="378" departLane="1" departSpeed="10" />
    <vehicle id="82" type="standard_car" route="S_N" depart="378" departLane="1" departSpeed="10" />
    <vehicle id="83" type="standard_car" route="S_N" depart="378" departLane="1" departSpeed="10" />
    <vehicle id="84" type="standard_car" route="S_N" depart="378" departLane="1" departSpeed="10" />
    <vehicle id="85" type="standard_car" route="W_E" depart="417" departLane="1" departSpeed="10" />
    <vehicle id="86" type="standard_car" route="E_N" depart="417" departLane="1" departSpeed="10" />
    <vehicle id="87" type="standard_car" route="W_E" depart="419" departLane="1" departSpeed="10" />
    <vehicle id="88" type="standard_car" route="E_W" depart="419" departLane="1" departSpeed="10" />
    <vehicle id="89" type="standard_car" route="E_W" depart="420" departLane="1" departSpeed="10" />
    <vehicle id="90" type="standard_car" route="E_N" depart="421" departLane="1" departSpeed="10" />
    <vehicle id="91" type="standard_car" route="W_E" depart="421" departLane="1" departSpeed="10" />
    <vehicle id="92" type="standard_car" route="W_E" depart="422" departLane="1" departSpeed="10" />
    <vehicle id="93" type="standard_car" route="W_S" depart="424" departLane="1" departSpeed="10" />
    <vehicle id="94" type="standard_car" route="W_E" depart="425" departLane="1" departSpeed="10" />
    <vehicle id="95" type="standard_car" route="W_E" depart="427" departLane="1" departSpeed="10" />
    <vehicle id="96" type="standard_car" route="W_E" depart="429" departLane="1" departSpeed="10" />
    <vehicle id="97" type="standard_car" route="W_E" depart="436" departLane="1" departSpeed="10" />
    <vehicle id="98" type="standard_car" route="S_N" depart="445" departLane="1" departSpeed="10" />
    <vehicle id="99" type="standard_car" route="N_S" depart="445" departLane="1" departSpeed="10" />
    <vehicle id="100" type="standard_car" route="N_S" depart="445" departLane="1" departSpeed="10" />
    <vehicle id="101" type="standard_car" route="S_N" depart="445" departLane="1" departSpeed="10" />
    <vehicle id="102" type="standard_car" route="S_N" depart="447" departLane="1" departSpeed="10" />
    <vehicle id="103" type="standard_car" route="S_N" depart="447" departLane="1" departSpeed="10" />
    <vehicle id="104" type="standard_car" route="E_N" depart="486" departLane="1" departSpeed="10" />
    <vehicle id="105" type="standard_car" route="W_E" depart="488" departLane="1" departSpeed="10" />
    <vehicle id="106" type="standard_car" route="N_S" depart="514" departLane="1" departSpeed="10" />
    <vehicle id="107" type="standard_car" route="N_S" depart="514" departLane="1" departSpeed="10" />
    <vehicle id="108" type="standard_car" route="S_N" depart="514" departLane="1" departSpeed="10" />
    <vehicle id="109" type="standard_car" route="S_N" depart="514" departLane="1" departSpeed="10" />
    <vehicle id="110" type="standard_car" route="S_N" depart="514" departLane="1" departSpeed="10" />
    <vehicle id="111" type="standard_car" route="S_N" depart="514" departLane="1" departSpeed="10" />
    <vehicle id="112" type="standard_car" route="S_N" depart="515" departLane="1" departSpeed="10" />
    <vehicle id="113" type="standard_car" route="S_N" depart="515" departLane="1" departSpeed="10" />
    <vehicle id="114" type="standard_car" route="S_N" depart="515" departLane="1" departSpeed="10" />
    <vehicle id="115" type="standard_car" route="S_N" depart="515" departLane="1" departSpeed="10" />
    <vehicle id="116" type="standard_car" route="S_N" depart="525" departLane="1" departSpeed="10" />
    <vehicle id="117" type="standard_car" route="S_N" depart="525" departLane="1" departSpeed="10" />
    <vehicle id="118" type="standard_car" route="W_S" depart="555" departLane="1" departSpeed="10" />
    <vehicle id="119" type="standard_car" route="E_W" depart="557" departLane="1" departSpeed="10" />
    <vehicle id="120" type="standard_car" route="W_E" depart="557" departLane="1" departSpeed="10" />
    <vehicle id="121" type="standard_car" route="W_E" depart="558" departLane="1" departSpeed="10" />
    <vehicle id="122" type="standard_car" route="W_E" depart="559" departLane="1" departSpeed="10" />
    <vehicle id="123" type="standard_car" route="W_E" depart="560" departLane="1" departSpeed="10" />
    <vehicle id="124" type="standard_car" route="W_E" depart="563" departLane="1" departSpeed="10" />
    <vehicle id="125" type="standard_car" route="W_E" depart="568" departLane="1" departSpeed="10" />
    <vehicle id="126" type="standard_car" route="W_E" depart="568" departLane="1" departSpeed="10" />
    <vehicle id="127" type="standard_car" route="W_E" depart="572" departLane="1" departSpeed="10" />
    <vehicle id="128" type="standard_car" route="E_W" depart="577" departLane="1" departSpeed="10" />
    <vehicle id="129" type="standard_car" route="S_N" depart="583" departLane="1" departSpeed="10" />
    <vehicle id="130" type="standard_car" route="N_S" depart="583" departLane="1" departSpeed="10" />
    <vehicle id="131" type="standard_car" route="S_N" depart="583" departLane="1" departSpeed="10" />
    <vehicle id="132" type="standard_car" route="N_S" depart="583" departLane="1" departSpeed="10" />
    <vehicle id="133" type="standard_car" route="S_N" depart="585" departLane="1" departSpeed="10" />
    <vehicle id="134" type="standard_car" route="S_N" depart="585" departLane="1" departSpeed="10" />
    <vehicle id="135" type="standard_car" route="N_S" depart="595" departLane="1" departSpeed="10" />
    <vehicle id="136" type="standard_car" route="W_E" depart="626" departLane="1" departSpeed="10" />
    <vehicle id="137" type="standard_car" route="E_W" depart="626" departLane="1" departSpeed="10" />
    <vehicle id="138" type="standard_car" route="W_E" depart="626" departLane="1" departSpeed="10" />
    <vehicle id="139" type="standard_car" route="E_W" depart="639" departLane="1" departSpeed="10" />
    <vehicle id="140" type="standard_car" route="S_N" depart="653" departLane="1" departSpeed="10" />
    <vehicle id="141" type="standard_car" route="S_N" depart="653" departLane="1" departSpeed="10" />
    <vehicle id="142" type="standard_car" route="W_E" depart="695" departLane="1" departSpeed="10" />
    <vehicle id="143" type="standard_car" route="E_W" depart="695" departLane="1" departSpeed="10" />
    <vehicle id="144" type="standard_car" route="W_E" depart="695" departLane="1" departSpeed="10" />
    <vehicle id="145" type="standard_car" route="W_E" depart="704" departLane="1" departSpeed="10" />
    <vehicle id="146" type="standard_car" route="S_N" depart="729" departLane="1" departSpeed="10" />
    <vehicle id="147" type="standard_car" route="S_N" depart="729" departLane="1" departSpeed="10" />
    <vehicle id="148" type="standard_car" route="S_N" depart="731" departLane="1" departSpeed="10" />
    <vehicle id="149" type="standard_car" route="S_N" depart="731" departLane="1" departSpeed="10" />
    <vehicle id="150" type="standard_car" route="W_E" depart="764" departLane="1" departSpeed="10" />
    <vehicle id="151" type="standard_car" route="W_E" depart="764" departLane="1" departSpeed="10" />
    <vehicle id="152" type="standard_car" route="E_W" depart="776" departLane="1" departSpeed="10" />
    <vehicle id="153" type="standard_car" route="E_W" depart="779" departLane="1" departSpeed="10" />
    <vehicle id="154" type="standard_car" route="E_N" depart="779" departLane="1" departSpeed="10" />
    <vehicle id="155" type="standard_car" route="E_N" depart="781" departLane="1" departSpeed="10" />
    <vehicle id="156" type="standard_car" route="N_S" depart="790" departLane="1" departSpeed="10" />
    <vehicle id="157" type="standard_car" route="S_N" depart="809" departLane="1" departSpeed="10" />
    <vehicle id="158" type="standard_car" route="S_N" depart="809" departLane="1" departSpeed="10" />
    <vehicle id="159" type="standard_car" route="W_S" depart="831" departLane="1" departSpeed="10" />
    <vehicle id="160" type="standard_car" route="E_W" depart="833" departLane="1" departSpeed="10" />
    <vehicle id="161" type="standard_car" route="W_E" depart="833" departLane="1" departSpeed="10" />
    <vehicle id="162" type="standard_car" route="E_S" depart="834" departLane="1" departSpeed="10" />
    <vehicle id="163" type="standard_car" route="E_W" depart="836" departLane="1" departSpeed="10" />
    <vehicle id="164" type="standard_car" route="E_W" depart="842" departLane="1" departSpeed="10" />
    <vehicle id="165" type="standard_car" route="E_W" depart="844" departLane="1" departSpeed="10" />
    <vehicle id="166" type="standard_car" route="E_W" depart="850" departLane="1" departSpeed="10" />
    <vehicle id="167" type="standard_car" route="S_N" depart="859" departLane="1" departSpeed="10" />
    <vehicle id="168" type="standard_car" route="S_N" depart="859" departLane="1" departSpeed="10" />
    <vehicle id="169" type="standard_car" route="W_E" depart="910" departLane="1" departSpeed="10" />
    <vehicle id="170" type="standard_car" route="W_E" depart="911" departLane="1" departSpeed="10" />
    <vehicle id="171" type="standard_car" route="W_E" depart="911" departLane="1" departSpeed="10" />
    <vehicle id="172" type="standard_car" route="W_E" depart="916" departLane="1" departSpeed="10" />
    <vehicle id="173" type="standard_car" route="N_S" depart="928" departLane="1" departSpeed="10" />
    <vehicle id="174" type="standard_car" route="S_N" depart="928" departLane="1" departSpeed="10" />
    <vehicle id="175" type="standard_car" route="S_N" depart="928" departLane="1" departSpeed="10" />
    <vehicle id="176" type="standard_car" route="N_S" depart="928" departLane="1" departSpeed="10" />
    <vehicle id="177" type="standard_car" route="S_N" depart="928" departLane="1" departSpeed="10" />
    <vehicle id="178" type="standard_car" route="S_N" depart="928" departLane="1" departSpeed="10" />
    <vehicle id="179" type="standard_car" route="S_N" depart="929" departLane="1" departSpeed="10" />
    <vehicle id="180" type="standard_car" route="S_N" depart="929" departLane="1" departSpeed="10" />
    <vehicle id="181" type="standard_car" route="W_E" depart="971" departLane="1" departSpeed="10" />
    <vehicle id="182" type="standard_car" route="W_E" depart="971" departLane="1" departSpeed="10" />
    <vehicle id="183" type="standard_car" route="W_E" depart="973" departLane="1" departSpeed="10" />
    <vehicle id="184" type="standard_car" route="N_S" depart="997" departLane="1" departSpeed="10" />
    <vehicle id="185" type="standard_car" route="N_S" depart="1015" departLane="1" departSpeed="10" />
    <vehicle id="186" type="standard_car" route="S_N" depart="1018" departLane="1" departSpeed="10" />
    <vehicle id="187" type="standard_car" route="S_N" depart="1018" departLane="1" departSpeed="10" />
    <vehicle id="188" type="standard_car" route="W_E" depart="1040" departLane="1" departSpeed="10" />
    <vehicle id="189" type="standard_car" route="W_E" depart="1040" departLane="1" departSpeed="10" />
    <vehicle id="190" type="standard_car" route="W_E" depart="1054" departLane="1" departSpeed="10" />
    <vehicle id="191" type="standard_car" route="S_N" depart="1066" departLane="1" departSpeed="10" />
    <vehicle id="192" type="standard_car" route="S_N" depart="1066" departLane="1" departSpeed="10" />
    <vehicle id="193" type="standard_car" route="W_S" depart="1107" departLane="1" departSpeed="10" />
    <vehicle id="194" type="standard_car" route="E_W" depart="1109" departLane="1" departSpeed="10" />
    <vehicle id="195" type="standard_car" route="W_E" depart="1109" departLane="1" departSpeed="10" />
    <vehicle id="196" type="standard_car" route="W_E" depart="1110" departLane="1" departSpeed="10" />
    <vehicle id="197" type="standard_car" route="S_N" depart="1135" departLane="1" departSpeed="10" />
    <vehicle id="198" type="standard_car" route="S_N" depart="1135" departLane="1" departSpeed="10" />
    <vehicle id="199" type="standard_car" route="N_S" depart="1135" departLane="1" departSpeed="10" />
    <vehicle id="200" type="standard_car" route="S_N" depart="1136" departLane="1" departSpeed="10" />
    <vehicle id="201" type="standard_car" route="S_N" depart="1136" departLane="1" departSpeed="10" />
    <vehicle id="202" type="standard_car" route="E_W" depart="1178" departLane="1" departSpeed="10" />
    <vehicle id="203" type="standard_car" route="E_N" depart="1179" departLane="1" departSpeed="10" />
    <vehicle id="204" type="standard_car" route="E_W" depart="1180" departLane="1" departSpeed="10" />
    <vehicle id="205" type="standard_car" route="S_N" depart="1224" departLane="1" departSpeed="10" />
    <vehicle id="206" type="standard_car" route="S_N" depart="1224" departLane="1" departSpeed="10" />
    <vehicle id="207" type="standard_car" route="W_E" depart="1254" departLane="1" departSpeed="10" />
    <vehicle id="208" type="standard_car" route="S_N" depart="1273" departLane="1" departSpeed="10" />
    <vehicle id="209" type="standard_car" route="N_S" depart="1273" departLane="1" departSpeed="10" />
    <vehicle id="210" type="standard_car" route="S_N" depart="1273" departLane="1" departSpeed="10" />
    <vehicle id="211" type="standard_car" route="E_W" depart="1315" departLane="1" departSpeed="10" />
    <vehicle id="212" type="standard_car" route="W_E" depart="1316" departLane="1" departSpeed="10" />
    <vehicle id="213" type="standard_car" route="E_W" depart="1316" departLane="1" departSpeed="10" />
    <vehicle id="214" type="standard_car" route="E_N" depart="1325" departLane="1" departSpeed="10" />
    <vehicle id="215" type="standard_car" route="E_N" depart="1327" departLane="1" departSpeed="10" />
    <vehicle id="216" type="standard_car" route="N_S" depart="1342" departLane="1" departSpeed="10" />
    <vehicle id="217" type="standard_car" route="N_S" depart="1342" departLane="1" departSpeed="10" />
    <vehicle id="218" type="standard_car" route="N_S" depart="1357" departLane="1" departSpeed="10" />
    <vehicle id="219" type="standard_car" route="N_S" depart="1357" departLane="1" departSpeed="10" />
    <vehicle id="220" type="standard_car" route="E_W" depart="1383" departLane="1" departSpeed="10" />
    <vehicle id="221" type="standard_car" route="E_W" depart="1383" departLane="1" departSpeed="10" />
    <vehicle id="222" type="standard_car" route="W_E" depart="1385" departLane="1" departSpeed="10" />
    <vehicle id="223" type="standard_car" route="W_E" depart="1385" departLane="1" departSpeed="10" />
    <vehicle id="224" type="standard_car" route="W_E" depart="1386" departLane="1" departSpeed="10" />
    <vehicle id="225" type="standard_car" route="W_E" depart="1387" departLane="1" departSpeed="10" />
    <vehicle id="226" type="standard_car" route="W_E" depart="1388" departLane="1" departSpeed="10" />
    <vehicle id="227" type="standard_car" route="E_N" depart="1394" departLane="1" departSpeed="10" />
    <vehicle id="228" type="standard_car" route="N_S" depart="1411" departLane="1" departSpeed="10" />
    <vehicle id="229" type="standard_car" route="S_N" depart="1411" departLane="1" departSpeed="10" />
    <vehicle id="230" type="standard_car" route="S_N" depart="1411" departLane="1" departSpeed="10" />
    <vehicle id="231" type="standard_car" route="S_N" depart="1430" departLane="1" departSpeed="10" />
    <vehicle id="232" type="standard_car" route="S_N" depart="1430" departLane="1" departSpeed="10" />
    <vehicle id="233" type="standard_car" route="N_S" depart="1431" departLane="1" departSpeed="10" />
    <vehicle id="234" type="standard_car" route="N_S" depart="1431" departLane="1" departSpeed="10" />
    <vehicle id="235" type="standard_car" route="W_S" depart="1452" departLane="1" departSpeed="10" />
    <vehicle id="236" type="standard_car" route="N_S" depart="1480" departLane="1" departSpeed="10" />
    <vehicle id="237" type="standard_car" route="N_S" depart="1485" departLane="1" departSpeed="10" />
    <vehicle id="238" type="standard_car" route="W_S" depart="1521" departLane="1" departSpeed="10" />
    <vehicle id="239" type="standard_car" route="W_E" depart="1521" departLane="1" departSpeed="10" />
    <vehicle id="240" type="standard_car" route="E_W" depart="1523" departLane="1" departSpeed="10" />
    <vehicle id="241" type="standard_car" route="E_W" depart="1533" departLane="1" departSpeed="10" />
    <vehicle id="242" type="standard_car" route="N_S" depart="1547" departLane="1" departSpeed="10" />
    <vehicle id="243" type="standard_car" route="E_N" depart="1590" departLane="1" departSpeed="10" />
    <vehicle id="244" type="standard_car" route="E_W" depart="1591" departLane="1" departSpeed="10" />
    <vehicle id="245" type="standard_car" route="E_N" depart="1592" departLane="1" departSpeed="10" />
    <vehicle id="246" type="standard_car" route="E_N" depart="1594" departLane="1" departSpeed="10" />
    <vehicle id="247" type="standard_car" route="E_N" depart="1596" departLane="1" departSpeed="10" />
    <vehicle id="248" type="standard_car" route="W_E" depart="1596" departLane="1" departSpeed="10" />
    <vehicle id="249" type="standard_car" route="S_N" depart="1618" departLane="1" departSpeed="10" />
    <vehicle id="250" type="standard_car" route="S_N" depart="1618" departLane="1" departSpeed="10" />
    <vehicle id="251" type="standard_car" route="N_S" depart="1628" departLane="1" departSpeed="10" />
    <vehicle id="252" type="standard_car" route="W_E" depart="1661" departLane="1" departSpeed="10" />
    <vehicle id="253" type="standard_car" route="W_E" depart="1661" departLane="1" departSpeed="10" />
    <vehicle id="254" type="standard_car" route="E_W" depart="1661" departLane="1" departSpeed="10" />
    <vehicle id="255" type="standard_car" route="W_E" depart="1662" departLane="1" departSpeed="10" />
    <vehicle id="256" type="standard_car" route="E_W" depart="1663" departLane="1" departSpeed="10" />
    <vehicle id="257" type="standard_car" route="E_W" depart="1667" departLane="1" departSpeed="10" />
    <vehicle id="258" type="standard_car" route="W_S" depart="1728" departLane="1" departSpeed="10" />
    <vehicle id="259" type="standard_car" route="W_E" depart="1730" departLane="1" departSpeed="10" />
    <vehicle id="260" type="standard_car" route="E_W" depart="1730" departLane="1" departSpeed="10" />
    <vehicle id="261" type="standard_car" route="E_N" depart="1730" departLane="1" departSpeed="10" />
    <vehicle id="262" type="standard_car" route="S_N" depart="1756" departLane="1" departSpeed="10" />
    <vehicle id="263" type="standard_car" route="S_N" depart="1756" departLane="1" departSpeed="10" />
    <vehicle id="264" type="standard_car" route="S_N" depart="1756" departLane="1" departSpeed="10" />
    <vehicle id="265" type="standard_car" route="N_S" depart="1756" departLane="1" departSpeed="10" />
    <vehicle id="266" type="standard_car" route="S_N" depart="1756" departLane="1" departSpeed="10" />
    <vehicle id="267" type="standard_car" route="S_N" depart="1758" departLane="1" departSpeed="10" />
    <vehicle id="268" type="standard_car" route="S_N" depart="1758" departLane="1" departSpeed="10" />
    <vehicle id="269" type="standard_car" route="N_S" depart="1774" departLane="1" departSpeed="10" />
    <vehicle id="270" type="standard_car" route="N_S" depart="1775" departLane="1" departSpeed="10" />
    <vehicle id="271" type="standard_car" route="N_S" depart="1776" departLane="1" departSpeed="10" />
    <vehicle id="272" type="standard_car" route="W_E" depart="1799" departLane="1" departSpeed="10" />
    <vehicle id="273" type="standard_car" route="E_W" depart="1799" departLane="1" departSpeed="10" />
    <vehicle id="274" type="standard_car" route="E_W" depart="1799" departLane="1" departSpeed="10" />
    <vehicle id="275" type="standard_car" route="E_W" depart="1801" departLane="1" departSpeed="10" />
    <vehicle id="276" type="standard_car" route="S_N" depart="1839" departLane="1" departSpeed="10" />
    <vehicle id="277" type="standard_car" route="S_N" depart="1839" departLane="1" departSpeed="10" />
    <vehicle id="278" type="standard_car" route="E_W" depart="1868" departLane="1" departSpeed="10" />
    <vehicle id="279" type="standard_car" route="N_S" depart="1894" departLane="1" departSpeed="10" />
    <vehicle id="280" type="standard_car" route="N_S" depart="1894" departLane="1" departSpeed="10" />
    <vehicle id="281" type="standard_car" route="S_N" depart="1916" departLane="1" departSpeed="10" />
    <vehicle id="282" type="standard_car" route="S_N" depart="1916" departLane="1" departSpeed="10" />
    <vehicle id="283" type="standard_car" route="E_N" depart="1937" departLane="1" departSpeed="10" />
    <vehicle id="284" type="standard_car" route="E_W" depart="1937" departLane="1" departSpeed="10" />
    <vehicle id="285" type="standard_car" route="W_E" depart="1940" departLane="1" departSpeed="10" />
    <vehicle id="286" type="standard_car" route="W_E" depart="1941" departLane="1" departSpeed="10" />