<routes>
        <vType accel="1.0" decel="4.5" id="standard_car" length="5.0" minGap="4" maxSpeed="25" sigma="0.5" />
        
        <route id="W_N" edges="W2TL TL2N"/>
        <route id="W_E" edges="W2TL TL2E"/>
        <route id="W_S" edges="W2TL TL2S"/>
        <route id="N_W" edges="N2TL TL2W"/>
        <route id="N_E" edges="N2TL TL2E"/>
        <route id="N_S" edges="N2TL TL2S"/>
        <route id="E_W" edges="E2TL TL2W"/>
        <route id="E_N" edges="E2TL TL2N"/>
        <route id="E_S" edges="E2TL TL2S"/>
        <route id="S_W" edges="S2TL TL2W"/>
        <route id="S_N" edges="S2TL TL2N"/>
        <route id="S_E" edges="S2TL TL2E"/>
    <vehicle id="0" type="standard_car" route="E_W" depart="25" departLane="1" departSpeed="10" />
    <vehicle id="1" type="standard_car" route="N_S" depart="54" departLane="1" departSpeed="10" />
    <vehicle id="2" type="standard_car" route="W_S" depart="90" departLane="1" departSpeed="10" />
    <vehicle id="3" type="standard_car" route="E_N" depart="90" departLane="1" departSpeed="10" />
    <vehicle id="4" type="standard_car" route="W_E" depart="92" departLane="1" departSpeed="10" />
    <vehicle id="5" type="standard_car" route="E_W" depart="96" departLane="1" departSpeed="10" />
    <vehicle id="6" type="standard_car" route="E_W" depart="99" departLane="1" departSpeed="10" />
    <vehicle id="7" type="standard_car" route="S_N" depart="129" departLane="1" departSpeed="10" />
    <vehicle id="8" type="standard_car" route="S_N" depart="129" departLane="1" departSpeed="10" />
    <vehicle id="9" type="standard_car" route="S_N" depart="131" departLane="1" departSpeed="10" />
    <vehicle id="10" type="standard_car" route="S_N" depart="131" departLane="1" departSpeed="10" />
    <vehicle id="11" type="standard_car" route="N_S" depart="147" departLane="1" departSpeed="10" />
    <vehicle id="12" type="standard_car" route="S_N" depart="154" departLane="1" departSpeed="10" />
    <vehicle id="13" type="standard_car" route="S_N" depart="154" departLane="1" departSpeed="10" />
    <vehicle id="14" type="standard_car" route="E_N" depart="182" departLane="1" departSpeed="10" />
    <vehicle id="15" type="standard_car" route="W_E" depart="184" departLane="1" departSpeed="10" />
    <vehicle id="16" type="standard_car" route="W_E" depart="184" departLane="1" departSpeed="10" />
    <vehicle id="17" type="standard_car" route="E_W" depart="185" departLane="1" departSpeed="10" />
    <vehicle id="18" type="standard_car" route="E_N" depart="185" departLane="1" departSpeed="10" />
    <vehicle id="19" type="standard_car" route="W_E" depart="186" departLane="1" departSpeed="10" />
    <vehicle id="20" type="standard_car" route="W_E" depart="186" departLane="1" departSpeed="10" />
    <vehicle id="21" type="standard_car" route="E_N" depart="188" departLane="1" departSpeed="10" />
    <vehicle id="22" type="standard_car" route="E_N" depart="192" departLane="1" departSpeed="10" />
    <vehicle id="23" type="standard_car" route="S_N" depart="221" departLane="1" departSpeed="10" />
    <vehicle id="24" type="standard_car" route="S_N" depart="221" departLane="1" departSpeed="10" />
    <vehicle id="25" type="standard_car" route="S_N" depart="221" departLane="1" departSpeed="10" />
    <vehicle id="26" type="standard_car" route="S_N" depart="221" departLane="1" departSpeed="10" />
    <vehicle id="27" type="standard_car" route="S_N" depart="226" departLane="1" departSpeed="10" />
    <vehicle id="28" type="standard_car" route="S_N" depart="226" departLane="1" departSpeed="10" />
    <vehicle id="29" type="standard_car" route="N_S" depart="239" departLane="1" departSpeed="10" />
    <vehicle id="30" type="standard_car" route="N_S" depart="239" departLane="1" departSpeed="10" />
    <vehicle id="31" type="standard_car" route="E_W" depart="275" departLane="1" departSpeed="10" />
    <vehicle id="32" type="standard_car" route="W_E" depart="276" departLane="1" departSpeed="10" />
    <vehicle id="33" type="standard_car" route="W_E" depart="276" departLane="1" departSpeed="10" />
    <vehicle id="34" type="standard_car" route="W_S" depart="284" departLane="1" departSpeed="10" />
    <vehicle id="35" type="standard_car" route="W_S" depart="286" departLane="1" departSpeed="10" />
    <vehicle id="36" type="standard_car" route="W_E" depart="291" departLane="1" departSpeed="10" />
    <vehicle id="37" type="standard_car" route="E_W" depart="298" departLane="1" departSpeed="10" />
    <vehicle id="38" type="standard_car" route="E_W" depart="301" departLane="1" departSpeed="10" />
    <vehicle id="39" type="standard_car" route="S_N" depart="313" departLane="1" departSpeed="10" />
    <vehicle id="40" type="standard_car" route="S_N" depart="313" departLane="1" departSpeed="10" />
    <vehicle id="41" type="standard_car" route="S_N" depart="314" departLane="1" departSpeed="10" />
    <vehicle id="42" type="standard_car" route="S_N" depart="314" departLane="1" departSpeed="10" />
    <vehicle id="43" type="standard_car" route="S_N" depart="315" departLane="1" departSpeed="10" />
    <vehicle id="44" type="standard_car" route="S_N" depart="315" departLane="1" departSpeed="10" />
    <vehicle id="45" type="standard_car" route="N_S" depart="351" departLane="1" departSpeed="10" />
    <vehicle id="46" type="standard_car" route="W_S" depart="366" departLane="1" departSpeed="10" />
    <vehicle id="47" type="standard_car" route="E_N" depart="366" departLane="1" departSpeed="10" />
    <vehicle id="48" type="standard_car" route="E_W" depart="367" departLane="1" departSpeed="10" />
    <vehicle id="49" type="standard_car" route="W_E" depart="368" departLane="1" departSpeed="10" />
    <vehicle id="50" type="standard_car" route="E_N" depart="368" departLane="1" departSpeed="10" />
    <vehicle id="51" type="standard_car" route="E_W" depart="369" departLane="1" departSpeed="10" />
    <vehicle id="52" type="standard_car" route="W_S" depart="373" departLane="1" departSpeed="10" />
    <vehicle id="53" type="standard_car" route="E_W" depart="373" departLane="1" departSpeed="10" />
    <vehicle id="54" type="standard_car" route="E_W" depart="377" departLane="1" departSpeed="10" />
    <vehicle id="55" type="standard_car" route="W_E" depart="388" departLane="1" departSpeed="10" />
    <vehicle id="56" type="standard_car" route="S_N" depart="405" departLane="1" departSpeed="10" />
    <vehicle id="57" type="standard_car" route="S_N" depart="405" departLane="1" departSpeed="10" />
    <vehicle id="58" type="standard_car" route="S_N" depart="407" departLane="1" departSpeed="10" />
    <vehicle id="59" type="standard_car" route="S_N" depart="407" departLane="1" departSpeed="10" />
    <vehicle id="60" type="standard_car" route="S_N" depart="408" departLane="1" departSpeed="10" />
    <vehicle id="61" type="standard_car" route="S_N" depart="408" departLane="1" departSpeed="10" />
    <vehicle id="62" type="standard_car" route="S_N" depart="413" departLane="1" departSpeed="10" />
    <vehicle id="63" type="standard_car" route="S_N" depart="413" departLane="1" departSpeed="10" />
    <vehicle id="64" type="standard_car" route="S_N" depart="418" departLane="1" departSpeed="10" />
    <vehicle id="65" type="standard_car" route="S_N" depart="418" departLane="1" departSpeed="10" />
    <vehicle id="66" type="standard_car" route="N_S" depart="423" departLane="1" departSpeed="10" />
    <vehicle id="67" type="standard_car" route="N_S" depart="423" departLane="1" departSpeed="10" />
    <vehicle id="68" type="standard_car" route="N_S" depart="424" departLane="1" departSpeed="10" />
    <vehicle id="69" type="standard_car" route="N_S" depart="425" departLane="1" departSpeed="10" />
    <vehicle id="70" type="standard_car" route="N_S" depart="426" departLane="1" departSpeed="10" />
    <vehicle id="71" type="standard_car" route="N_S" depart="426" departLane="1" departSpeed="10" />
    <vehicle id="72" type="standard_car" route="N_S" depart="427" departLane="1" departSpeed="10" />
    <vehicle id="73" type="standard_car" route="N_S" depart="428" departLane="1" departSpeed="10" />
    <vehicle id="74" type="standard_car" route="N_S" depart="429" departLane="1" departSpeed="10" />
    <vehicle id="75" type="standard_car" route="W_S" depart="458" departLane="1" departSpeed="10" />
    <vehicle id="76" type="standard_car" route="E_N" depart="458" departLane="1" departSpeed="10" />
    <vehicle id="77" type="standard_car" route="W_E" depart="460" departLane="1" departSpeed="10" />
    <vehicle id="78" type="standard_car" route="E_N" depart="460" departLane="1" departSpeed="10" />
    <vehicle id="79" type="standard_car" route="E_W" depart="460" departLane="1" departSpeed="10" />
    <vehicle id="80" type="standard_car" route="W_E" depart="461" departLane="1" departSpeed="10" />
    <vehicle id="81" type="standard_car" route="W_E" depart="461" departLane="1" departSpeed="10" />
    <vehicle id="82" type="standard_car" route="E_W" depart="463" departLane="1" departSpeed="10" />
    <vehicle id="83" type="standard_car" route="W_E" depart="463" departLane="1" departSpeed="10" />
    <vehicle id="84" type="standard_car" route="W_E" depart="463" departLane="1" departSpeed="10" />
    <vehicle id="85" type="standard_car" route="W_E" depart="464" departLane="1" departSpeed="10" />
    <vehicle id="86" type="standard_car" route="W_S" depart="466" departLane="1" departSpeed="10" />
    <vehicle id="87" type="standard_car" route="W_S" depart="468" departLane="1" departSpeed="10" />
    <vehicle id="88" type="standard_car" route="W_E" depart="470" departLane="1" departSpeed="10" />
    <vehicle id="89" type="standard_car" route="E_W" depart="481" departLane="1" departSpeed="10" />
    <vehicle id="90" type="standard_car" route="E_N" depart="484" departLane="1" departSpeed="10" />
    <vehicle id="91" type="standard_car" route="S_N" depart="497" departLane="1" departSpeed="10" />
    <vehicle id="92" type="standard_car" route="S_N" depart="497" departLane="1" departSpeed="10" />
    <vehicle id="93" type="standard_car" route="S_N" depart="498" departLane="1" departSpeed="10" />
    <vehicle id="94" type="standard_car" route="S_N" depart="498" departLane="1" departSpeed="10" />
    <vehicle id="95" type="standard_car" route="S_N" depart="499" departLane="1" departSpeed="10" />
    <vehicle id="96" type="standard_car" route="S_N" depart="499" departLane="1" departSpeed="10" />
    <vehicle id="97" type="standard_car" route="S_N" depart="500" departLane="1" departSpeed="10" />
    <vehicle id="98" type="standard_car" route="S_N" depart="500" departLane="1" departSpeed="10" />
    <vehicle id="99" type="standard_car" route="N_S" depart="515" departLane="1" departSpeed="10" />
    <vehicle id="100" type="standard_car" route="N_S" depart="519" departLane="1" departSpeed="10" />
    <vehicle id="101" type="standard_car" route="N_S" depart="530" departLane="1" departSpeed="10" />
    <vehicle id="102" type="standard_car" route="E_N" depart="550" departLane="1" departSpeed="10" />
    <vehicle id="103" type="standard_car" route="W_E" depart="552" departLane="1" departSpeed="10" />
    <vehicle id="104" type="standard_car" route="W_E" depart="552" departLane="1" departSpeed="10" />
    <vehicle id="105" type="standard_car" route="E_W" depart="552" departLane="1" departSpeed="10" />
    <vehicle id="106" type="standard_car" route="W_E" depart="553" departLane="1" departSpeed="10" />
    <vehicle id="107" type="standard_car" route="E_W" depart="553" departLane="1" departSpeed="10" />
    <vehicle id="108" type="standard_car" route="W_E" depart="554" departLane="1" departSpeed="10" />
    <vehicle id="109" type="standard_car" route="E_W" depart="554" departLane="1" departSpeed="10" />
    <vehicle id="110" type="standard_car" route="W_E" depart="555" departLane="1" departSpeed="10" />
    <vehicle id="111" type="standard_car" route="E_W" depart="555" departLane="1" departSpeed="10" />
    <vehicle id="112" type="standard_car" route="E_W" depart="555" departLane="1" departSpeed="10" />
    <vehicle id="113" type="standard_car" route="W_E" depart="556" departLane="1" departSpeed="10" />
    <vehicle id="114" type="standard_car" route="E_W" depart="556" departLane="1" departSpeed="10" />
    <vehicle id="115" type="standard_car" route="W_S" depart="559" departLane="1" departSpeed="10" />
    <vehicle id="116" type="standard_car" route="W_E" depart="565" departLane="1" departSpeed="10" />
    <vehicle id="117" type="standard_car" route="E_W" depart="568" departLane="1" departSpeed="10" />
    <vehicle id="118" type="standard_car" route="E_N" depart="569" departLane="1" departSpeed="10" />
    <vehicle id="119" type="standard_car" route="S_N" depart="589" departLane="1" departSpeed="10" />
    <vehicle id="120" type="standard_car" route="S_N" depart="589" departLane="1" departSpeed="10" />
    <vehicle id="121" type="standard_car" route="S_N" depart="590" departLane="1" departSpeed="10" />
    <vehicle id="122" type="standard_car" route="S_N" depart="590" departLane="1" departSpeed="10" />
    <vehicle id="123" type="standard_car" route="S_N" depart="592" departLane="1" departSpeed="10" />
    <vehicle id="124" type="standard_car" route="S_N" depart="592" departLane="1" departSpeed="10" />
    <vehicle id="125" type="standard_car" route="S_N" depart="593" departLane="1" departSpeed="10" />
    <vehicle id="126" type="standard_car" route="S_N" depart="593" departLane="1" departSpeed="10" />
    <vehicle id="127" type="standard_car" route="S_N" depart="595" departLane="1" departSpeed="10" />
    <vehicle id="128" type="standard_car" route="S_N" depart="595" departLane="1" departSpeed="10" />
    <vehicle id="129" type="standard_car" route="S_N" depart="597" departLane="1" departSpeed="10" />
    <vehicle id="130" type="standard_car" route="S_N" depart="597" departLane="1" departSpeed="10" />
    <vehicle id="131" type="standard_car" route="S_N" depart="598" departLane="1" departSpeed="10" />
    <vehicle id="132" type="standard_car" route="S_N" depart="598" departLane="1" departSpeed="10" />
    <vehicle id="133" type="standard_car" route="S_N" depart="600" departLane="1" departSpeed="10" />
    <vehicle id="134" type="standard_car" route="S_N" depart="600" departLane="1" departSpeed="10" />
    <vehicle id="135" type="standard_car" route="S_N" depart="602" departLane="1" departSpeed="10" />
    <vehicle id="136" type="standard_car" route="S_N" depart="602" departLane="1" departSpeed="10" />
    <vehicle id="137" type="standard_car" route="S_N" depart="604" departLane="1" departSpeed="10" />
    <vehicle id="138" type="standard_car" route="S_N" depart="604" departLane="1" departSpeed="10" />
    <vehicle id="139" type="standard_car" route="S_N" depart="606" departLane="1" departSpeed="10" />
    <vehicle id="140" type="standard_car" route="S_N" depart="606" departLane="1" departSpeed="10" />
    <vehicle id="141" type="standard_car" route="N_S" depart="607" departLane="1" departSpeed="10" />
    <vehicle id="142" type="standard_car" route="N_S" depart="607" departLane="1" departSpeed="10" />
    <vehicle id="143" type="standard_car" route="N_S" depart="609" departLane="1" departSpeed="10" />
    <vehicle id="144" type="standard_car" route="S_N" depart="610" departLane="1" departSpeed="10" />
    <vehicle id="145" type="standard_car" route="S_N" depart="610" departLane="1" departSpeed="10" />
    <vehicle id="146" type="standard_car" route="W_E" depart="644" departLane="1" departSpeed="10" />
    <vehicle id="147" type="standard_car" route="E_W" depart="644" departLane="1" departSpeed="10" />
    <vehicle id="148" type="standard_car" route="E_N" depart="644" departLane="1" departSpeed="10" />
    <vehicle id="149" type="standard_car" route="E_W" depart="646" departLane="1" departSpeed="10" />
    <vehicle id="150" type="standard_car" route="W_E" depart="649" departLane="1" departSpeed="10" />
    <vehicle id="151" type="standard_car" route="W_E" depart="651" departLane="1" departSpeed="10" />
    <vehicle id="152" type="standard_car" route="W_S" depart="653" departLane="1" departSpeed="10" />
    <vehicle id="153" type="standard_car" route="E_W" depart="655" departLane="1" departSpeed="10" />
    <vehicle id="154" type="standard_car" route="E_W" depart="660" departLane="1" departSpeed="10" />
    <vehicle id="155" type="standard_car" route="S_N" depart="681" departLane="1" departSpeed="10" />
    <vehicle id="156" type="standard_car" route="S_N" depart="681" departLane="1" departSpeed="10" />
    <vehicle id="157" type="standard_car" route="S_N" depart="681" departLane="1" departSpeed="10" />
    <vehicle id="158" type="standard_car" route="S_N" depart="681" departLane="1" departSpeed="10" />
    <vehicle id="159" type="standard_car" route="S_N" depart="685" departLane="1" departSpeed="10" />
    <vehicle id="160" type="standard_car" route="S_N" depart="685" departLane="1" departSpeed="10" />
    <vehicle id="161" type="standard_car" route="S_N" depart="690" departLane="1" departSpeed="10" />
    <vehicle id="162" type="standard_car" route="S_N" depart="690" departLane="1" departSpeed="10" />
    <vehicle id="163" type="standard_car" route="S_N" depart="691" departLane="1" departSpeed="10" />
    <vehicle id="164" type="standard_car" route="S_N" depart="691" departLane="1" departSpeed="10" />
    <vehicle id="165" type="standard_car" route="S_N" depart="692" departLane="1" departSpeed="10" />
    <vehicle id="166" type="standard_car" route="S_N" depart="692" departLane="1" departSpeed="10" />
    <vehicle id="167" type="standard_car" route="S_N" depart="694" departLane="1" departSpeed="10" />
    <vehicle id="168" type="standard_car" route="S_N" depart="694" departLane="1" departSpeed="10" />
    <vehicle id="169" type="standard_car" route="S_N" depart="697" departLane="1" departSpeed="10" />
    <vehicle id="170" type="standard_car" route="S_N" depart="697" departLane="1" departSpeed="10" />
    <vehicle id="171" type="standard_car" route="N_S" depart="699" departLane="1" departSpeed="10" />
    <vehicle id="172" type="standard_car" route="N_S" depart="699" departLane="1" departSpeed="10" />
    <vehicle id="173" type="standard_car" route="S_N" depart="700" departLane="1" departSpeed="10" />
    <vehicle id="174" type="standard_car" route="S_N" depart="700" departLane="1" departSpeed="10" />
    <vehicle id="175" type="standard_car" route="N_S" depart="701" departLane="1" departSpeed="10" />
    <vehicle id="176" type="standard_car" route="N_S" depart="701" departLane="1" departSpeed="10" />
    <vehicle id="177" type="standard_car" route="N_S" depart="702" departLane="1" departSpeed="10" />
    <vehicle id="178" type="standard_car" route="N_S" depart="702" departLane="1" departSpeed="10" />
    <vehicle id="179" type="standard_car" route="N_S" depart="703" departLane="1" departSpeed="10" />
    <vehicle id="180" type="standard_car" route="N_S" depart="704" departLane="1" departSpeed="10" />
    <vehicle id="181" type="standard_car" route="S_N" depart="704" departLane="1" departSpeed="10" />
    <vehicle id="182" type="standard_car" route="S_N" depart="704" departLane="1" departSpeed="10" />
    <vehicle id="183" type="standard_car" route="N_S" depart="705" departLane="1" departSpeed="10" />
    <vehicle id="184" type="standard_car" route="N_E" depart="730" departLane="1" departSpeed="10" />
    <vehicle id="185" type="standard_car" route="W_E" depart="736" departLane="1" departSpeed="10" />
    <vehicle id="186" type="standard_car" route="W_E" depart="736" departLane="1" departSpeed="10" />
    <vehicle id="187" type="standard_car" route="E_W" depart="736" departLane="1" departSpeed="10" />
    <vehicle id="188" type="standard_car" route="E_W" depart="736" departLane="1" departSpeed="10" />
    <vehicle id="189" type="standard_car" route="E_W" depart="738" departLane="1" departSpeed="10" />
    <vehicle id="190" type="standard_car" route="W_E" depart="738" departLane="1" departSpeed="10" />
    <vehicle id="191" type="standard_car" route="W_E" depart="738" departLane="1" departSpeed="10" />
    <vehicle id="192" type="standard_car" route="E_W" depart="738" departLane="1" departSpeed="10" />
    <vehicle id="193" type="standard_car" route="W_E" depart="739" departLane="1" departSpeed="10" />
    <vehicle id="194" type="standard_car" route="W_E" depart="739" departLane="1" departSpeed="10" />
    <vehicle id="195" type="standard_car" route="E_W" depart="740" departLane="1" departSpeed="10" />
    <vehicle id="196" type="standard_car" route="E_W" depart="740" departLane="1" departSpeed="10" />
    <vehicle id="197" type="standard_car" route="E_W" depart="741" departLane="1" departSpeed="10" />
    <vehicle id="198" type="standard_car" route="E_W" depart="741" departLane="1" departSpeed="10" />
    <vehicle id="199" type="standard_car" route="E_W" depart="743" departLane="1" departSpeed="10" />
    <vehicle id="200" type="standard_car" route="E_N" depart="743" departLane="1" departSpeed="10" />
    <vehicle id="201" type="standard_car" route="E_W" depart="744" departLane="1" departSpeed="10" />
    <vehicle id="202" type="standard_car" route="E_N" depart="745" departLane="1" departSpeed="10" />
    <vehicle id="203" type="standard_car" route="E_W" depart="746" departLane="1" departSpeed="10" />
    <vehicle id="204" type="standard_car" route="E_W" depart="747" departLane="1" departSpeed="10" />
    <vehicle id="205" type="standard_car" route="E_W" depart="748" departLane="1" departSpeed="10" />
    <vehicle id="206" type="standard_car" route="S_N" depart="773" departLane="1" departSpeed="10" />
    <vehicle id="207" type="standard_car" route="S_N" depart="773" departLane="1" departSpeed="10" />
    <vehicle id="208" type="standard_car" route="S_N" depart="773" departLane="1" departSpeed="10" />
    <vehicle id="209" type="standard_car" route="S_N" depart="773" departLane="1" departSpeed="10" />
    <vehicle id="210" type="standard_car" route="S_N" depart="775" departLane="1" departSpeed="10" />
    <vehicle id="211" type="standard_car" route="S_N" depart="775" departLane="1" departSpeed="10" />
    <vehicle id="212" type="standard_car" route="S_N" depart="775" departLane="1" departSpeed="10" />
    <vehicle id="213" type="standard_car" route="S_N" depart="775" departLane="1" departSpeed="10" />
    <vehicle id="214" type="standard_car" route="S_N" depart="776" departLane="1" departSpeed="10" />
    <vehicle id="215" type="standard_car" route="S_N" depart="776" departLane="1" departSpeed="10" />
    <vehicle id="216" type="standard_car" route="S_N" depart="777" departLane="1" departSpeed="10" />
    <vehicle id="217" type="standard_car" route="S_N" depart="777" departLane="1" departSpeed="10" />
    <vehicle id="218" type="standard_car" route="N_S" depart="791" departLane="1" departSpeed="10" />
    <vehicle id="219" type="standard_car" route="N_S" depart="791" departLane="1" departSpeed="10" />
    <vehicle id="220" type="standard_car" route="N_S" depart="792" departLane="1" departSpeed="10" />
    <vehicle id="221" type="standard_car" route="N_S" depart="793" departLane="1" departSpeed="10" />
    <vehicle id="222" type="standard_car" route="N_S" depart="794" departLane="1" departSpeed="10" />
    <vehicle id="223" type="standard_car" route="N_S" depart="794" departLane="1" departSpeed="10" />
    <vehicle id="224" type="standard_car" route="N_S" depart="796" departLane="1" departSpeed="10" />
    <vehicle id="225" type="standard_car" route="N_E" depart="806" departLane="1" departSpeed="10" />
    <vehicle id="226" type="standard_car" route="N_S" depart="812" departLane="1" departSpeed="10" />
    <vehicle id="227" type="standard_car" route="N_S" depart="813" departLane="1" departSpeed="10" />
    <vehicle id="228" type="standard_car" route="N_S" depart="814" departLane="1" departSpeed="10" />
    <vehicle id="229" type="standard_car" route="N_E" depart="817" departLane="1" departSpeed="10" />
    <vehicle id="230" type="standard_car" route="W_E" depart="828" departLane="1" departSpeed="10" />
    <vehicle id="231" type="standard_car" route="E_W" depart="828" departLane="1" departSpeed="10" />
    <vehicle id="232" type="standard_car" route="E_W" depart="828" departLane="1" departSpeed="10" />
    <vehicle id="233" type="standard_car" route="W_E" depart="828" departLane="1" departSpeed="10" />
    <vehicle id="234" type="standard_car" route="E_W" depart="829" departLane="1" departSpeed="10" />
    <vehicle id="235" type="standard_car" route="E_W" depart="830" departLane="1" departSpeed="10" />
    <vehicle id="236" type="standard_car" route="W_E" depart="830" departLane="1" departSpeed="10" />
    <vehicle id="237" type="standard_car" route="W_E" depart="830" departLane="1" departSpeed="10" />
    <vehicle id="238" type="standard_car" route="E_W" depart="831" departLane="1" departSpeed="10" />
    <vehicle id="239" type="standard_car" route="E_W" depart="831" departLane="1" departSpeed="10" />
    <vehicle id="240" type="standard_car" route="W_E" depart="832" departLane="1" departSpeed="10" />
    <vehicle id="241" type="standard_car" route="E_W" depart="833" departLane="1" departSpeed="10" />
    <vehicle id="242" type="standard_car" route="E_W" depart="833" departLane="1" departSpeed="10" />
    <vehicle id="243" type="standard_car" route="E_N" depart="836" departLane="1" departSpeed="10" />
    <vehicle id="244" type="standard_car" route="W_E" depart="837" departLane="1" departSpeed="10" />
    <vehicle id="245" type="standard_car" route="S_N" depart="867" departLane="1" departSpeed="10" />
    <vehicle id="246" type="standard_car" route="S_N" depart="867" departLane="1" departSpeed="10" />
    <vehicle id="247" type="standard_car" route="S_N" depart="868" departLane="1" departSpeed="10" />
    <vehicle id="248" type="standard_car" route="S_N" depart="868" departLane="1" departSpeed="10" />
    <vehicle id="249" type="standard_car" route="S_N" depart="870" departLane="1" departSpeed="10" />
    <vehicle id="250" type="standard_car" route="S_N" depart="870" departLane="1" departSpeed="10" />
    <vehicle id="251" type="standard_car" route="S_N" depart="871" departLane="1" departSpeed="10" />
    <vehicle id="252" type="standard_car" route="S_N" depart="871" departLane="1" departSpeed="10" />
    <vehicle id="253" type="standard_car" route="N_S" depart="883" departLane="1" departSpeed="10" />
    <vehicle id="254" type="standard_car" route="N_S" depart="883" departLane="1" departSpeed="10" />
    <vehicle id="255" type="standard_car" route="N_S" depart="884" departLane="1" departSpeed="10" />
    <vehicle id="256" type="standard_car" route="S_N" depart="886" departLane="1" departSpeed="10" />
    <vehicle id="257" type="standard_car" route="S_N" depart="886" departLane="1" departSpeed="10" />
    <vehicle id="258" type="standard_car" route="S_N" depart="891" departLane="1" departSpeed="10" />
    <vehicle id="259" type="standard_car" route="S_N" depart="891" departLane="1" departSpeed="10" />
    <vehicle id="260" type="standard_car" route="N_S" depart="898" departLane="1" departSpeed="10" />
    <vehicle id="261" type="standard_car" route="E_W" depart="920" departLane="1" departSpeed="10" />
    <vehicle id="262" type="standard_car" route="E_W" depart="920" departLane="1" departSpeed="10" />
    <vehicle id="263" type="standard_car" route="E_N" depart="920" departLane="1" departSpeed="10" />
    <vehicle id="264" type="standard_car" route="W_E" depart="920" departLane="1" departSpeed="10" />
    <vehicle id="265" type="standard_car" route="W_E" depart="920" departLane="1" departSpeed="10" />
    <vehicle id="266" type="standard_car" route="E_W" depart="921" departLane="1" departSpeed="10" />
    <vehicle id="267" type="standard_car" route="W_E" depart="922" departLane="1" departSpeed="10" />
    <vehicle id="268" type="standard_car" route="E_W" depart="923" departLane="1" departSpeed="10" />
    <vehicle id="269" type="standard_car" route="E_W" depart="924" departLane="1" departSpeed="10" />
    <vehicle id="270" type="standard_car" route="E_W" depart="925" departLane="1" departSpeed="10" />
    <vehicle id="271" type="standard_car" route="E_W" depart="925" departLane="1" departSpeed="10" />
    <vehicle id="272" type="standard_car" route="E_W" depart="927" departLane="1" departSpeed="10" />
    <vehicle id="273" type="standard_car" route="E_W" depart="927" departLane="1" departSpeed="10" />
    <vehicle id="274" type="standard_car" route="W_E" depart="931" departLane="1" departSpeed="10" />
    <vehicle id="275" type="standard_car" route="S_N" depart="957" departLane="1" departSpeed="10" />
    <vehicle id="276" type="standard_car" route="S_N" depart="957" departLane="1" departSpeed="10" />
    <vehicle id="277" type="standard_car" route="S_N" depart="957" departLane="1" departSpeed="10" />
    <vehicle id="278" type="standard_car" route="S_N" depart="957" departLane="1" departSpeed="10" />
    <vehicle id="279" type="standard_car" route="S_N" depart="958" departLane="1" departSpeed="10" />
    <vehicle id="280" type="standard_car" route="S_N" depart="958" departLane="1" departSpeed="10" />
    <vehicle id="281" type="standard_car" route="S_N" depart="959" departLane="1" departSpeed="10" />
    <vehicle id="282" type="standard_car" route="S_N" depart="959" departLane="1" departSpeed="10" />
    <vehicle id="283" type="standard_car" route="S_N" depart="960" departLane="1" departSpeed="10" />
    <vehicle id="284" type="standard_car" route="S_N" depart="960" departLane="1" departSpeed="10" />
    <vehicle id="285" type="standard_car" route="S_N" depart="960" departLane="1" departSpeed="10" />
    <vehicle id="286" type="standard_car" route="S_N" depart="960" departLane="1" departSpeed="10" />
    <vehicle id="287" type="standard_car" route="S_N" depart="963" departLane="1" departSpeed="10" />