<routes>
        <vType accel="1.0" decel="4.5" id="standard_car" length="5.0" minGap="4" maxSpeed="25" sigma="0.5" />
        
        <route id="W_N" edges="W2TL TL2N"/>
        <route id="W_E" edges="W2TL TL2E"/>
        <route id="W_S" edges="W2TL TL2S"/>
        <route id="N_W" edges="N2TL TL2W"/>
        <route id="N_E" edges="N2TL TL2E"/>
        <route id="N_S" edges="N2TL TL2S"/>
        <route id="E_W" edges="E2TL TL2W"/>
        <route id="E_N" edges="E2TL TL2N"/>
        <route id="E_S" edges="E2TL TL2S"/>
        <route id="S_W" edges="S2TL TL2W"/>
        <route id="S_N" edges="S2TL TL2N"/>
        <route id="S_E" edges="S2TL TL2E"/>
    <vehicle id="0" type="standard_car" route="N_S" depart="1" departLane="1" departSpeed="10" />
    <vehicle id="1" type="standard_car" route="S_N" depart="1" departLane="1" departSpeed="10" />
    <vehicle id="2" type="standard_car" route="S_N" depart="1" departLane="1" departSpeed="10" />
    <vehicle id="3" type="standard_car" route="E_N" depart="5" departLane="1" departSpeed="10" />
    <vehicle id="4" type="standard_car" route="E_W" depart="5" departLane="1" departSpeed="10" />
    <vehicle id="5" type="standard_car" route="E_N" depart="7" departLane="1" departSpeed="10" />
    <vehicle id="6" type="standard_car" route="W_E" depart="8" departLane="1" departSpeed="10" />
    <vehicle id="7" type="standard_car" route="E_N" depart="9" departLane="1" departSpeed="10" />
    <vehicle id="8" type="standard_car" route="E_W" depart="9" departLane="1" departSpeed="10" />
    <vehicle id="9" type="standard_car" route="E_W" depart="10" departLane="1" departSpeed="10" />
    <vehicle id="10" type="standard_car" route="E_N" depart="11" departLane="1" departSpeed="10" />
    <vehicle id="11" type="standard_car" route="E_W" depart="12" departLane="1" departSpeed="10" />
    <vehicle id="12" type="standard_car" route="E_W" depart="13" departLane="1" departSpeed="10" />
    <vehicle id="13" type="standard_car" route="E_W" depart="14" departLane="1" departSpeed="10" />
    <vehicle id="14" type="standard_car" route="E_W" depart="14" departLane="1" departSpeed="10" />
    <vehicle id="15" type="standard_car" route="E_W" depart="16" departLane="1" departSpeed="10" />
    <vehicle id="16" type="standard_car" route="E_W" depart="17" departLane="1" departSpeed="10" />
    <vehicle id="17" type="standard_car" route="E_W" depart="19" departLane="1" departSpeed="10" />
    <vehicle id="18" type="standard_car" route="W_E" depart="20" departLane="1" departSpeed="10" />
    <vehicle id="19" type="standard_car" route="E_W" depart="21" departLane="1" departSpeed="10" />
    <vehicle id="20" type="standard_car" route="E_W" depart="22" departLane="1" departSpeed="10" />
    <vehicle id="21" type="standard_car" route="W_E" depart="23" departLane="1" departSpeed="10" />
    <vehicle id="22" type="standard_car" route="E_W" depart="24" departLane="1" departSpeed="10" />
    <vehicle id="23" type="standard_car" route="W_S" depart="26" departLane="1" departSpeed="10" />
    <vehicle id="24" type="standard_car" route="S_N" depart="45" departLane="1" departSpeed="10" />
    <vehicle id="25" type="standard_car" route="S_N" depart="45" departLane="1" departSpeed="10" />
    <vehicle id="26" type="standard_car" route="S_N" depart="46" departLane="1" departSpeed="10" />
    <vehicle id="27" type="standard_car" route="S_N" depart="46" departLane="1" departSpeed="10" />
    <vehicle id="28" type="standard_car" route="S_N" depart="47" departLane="1" departSpeed="10" />
    <vehicle id="29" type="standard_car" route="S_N" depart="47" departLane="1" departSpeed="10" />
    <vehicle id="30" type="standard_car" route="S_N" depart="48" departLane="1" departSpeed="10" />
    <vehicle id="31" type="standard_car" route="S_N" depart="48" departLane="1" departSpeed="10" />
    <vehicle id="32" type="standard_car" route="S_N" depart="49" departLane="1" departSpeed="10" />
    <vehicle id="33" type="standard_car" route="S_N" depart="49" departLane="1" departSpeed="10" />
    <vehicle id="34" type="standard_car" route="S_N" depart="51" departLane="1" departSpeed="10" />
    <vehicle id="35" type="standard_car" route="S_N" depart="51" departLane="1" departSpeed="10" />
    <vehicle id="36" type="standard_car" route="S_N" depart="52" departLane="1" departSpeed="10" />
    <vehicle id="37" type="standard_car" route="S_N" depart="52" departLane="1" departSpeed="10" />
    <vehicle id="38" type="standard_car" route="S_N" depart="53" departLane="1" departSpeed="10" />
    <vehicle id="39" type="standard_car" route="S_N" depart="53" departLane="1" departSpeed="10" />
    <vehicle id="40" type="standard_car" route="S_N" depart="55" departLane="1" departSpeed="10" />
    <vehicle id="41" type="standard_car" route="S_N" depart="55" departLane="1" departSpeed="10" />
    <vehicle id="42" type="standard_car" route="N_S" depart="63" departLane="1" departSpeed="10" />
    <vehicle id="43" type="standard_car" route="N_S" depart="63" departLane="1" departSpeed="10" />
    <vehicle id="44" type="standard_car" route="N_S" depart="64" departLane="1" departSpeed="10" />
    <vehicle id="45" type="standard_car" route="N_S" depart="65" departLane="1" departSpeed="10" />
    <vehicle id="46" type="standard_car" route="N_S" depart="66" departLane="1" departSpeed="10" />
    <vehicle id="47" type="standard_car" route="N_S" depart="66" departLane="1" departSpeed="10" />
    <vehicle id="48" type="standard_car" route="N_S" depart="68" departLane="1" departSpeed="10" />
    <vehicle id="49" type="standard_car" route="N_S" depart="69" departLane="1" departSpeed="10" />
    <vehicle id="50" type="standard_car" route="N_S" depart="84" departLane="1" departSpeed="10" />
    <vehicle id="51" type="standard_car" route="N_E" depart="85" departLane="1" departSpeed="10" />
    <vehicle id="52" type="standard_car" route="N_E" depart="87" departLane="1" departSpeed="10" />
    <vehicle id="53" type="standard_car" route="N_E" depart="89" departLane="1" departSpeed="10" />
    <vehicle id="54" type="standard_car" route="E_W" depart="107" departLane="1" departSpeed="10" />
    <vehicle id="55" type="standard_car" route="E_W" depart="107" departLane="1" departSpeed="10" />
    <vehicle id="56" type="standard_car" route="W_E" depart="107" departLane="1" departSpeed="10" />
    <vehicle id="57" type="standard_car" route="W_E" depart="107" departLane="1" departSpeed="10" />
    <vehicle id="58" type="standard_car" route="E_W" depart="108" departLane="1" departSpeed="10" />
    <vehicle id="59" type="standard_car" route="W_E" depart="109" departLane="1" departSpeed="10" />
    <vehicle id="60" type="standard_car" route="W_E" depart="109" departLane="1" departSpeed="10" />
    <vehicle id="61" type="standard_car" route="W_E" depart="110" departLane="1" departSpeed="10" />
    <vehicle id="62" type="standard_car" route="W_E" depart="110" departLane="1" departSpeed="10" />
    <vehicle id="63" type="standard_car" route="E_W" depart="110" departLane="1" departSpeed="10" />
    <vehicle id="64" type="standard_car" route="E_W" depart="111" departLane="1" departSpeed="10" />
    <vehicle id="65" type="standard_car" route="W_E" depart="111" departLane="1" departSpeed="10" />
    <vehicle id="66" type="standard_car" route="W_S" depart="111" departLane="1" departSpeed="10" />
    <vehicle id="67" type="standard_car" route="E_W" depart="112" departLane="1" departSpeed="10" />
    <vehicle id="68" type="standard_car" route="E_N" depart="112" departLane="1" departSpeed="10" />
    <vehicle id="69" type="standard_car" route="E_W" depart="113" departLane="1" departSpeed="10" />
    <vehicle id="70" type="standard_car" route="W_E" depart="113" departLane="1" departSpeed="10" />
    <vehicle id="71" type="standard_car" route="W_E" depart="114" departLane="1" departSpeed="10" />
    <vehicle id="72" type="standard_car" route="E_W" depart="114" departLane="1" departSpeed="10" />
    <vehicle id="73" type="standard_car" route="E_N" depart="114" departLane="1" departSpeed="10" />
    <vehicle id="74" type="standard_car" route="W_E" depart="115" departLane="1" departSpeed="10" />
    <vehicle id="75" type="standard_car" route="W_E" depart="115" departLane="1" departSpeed="10" />
    <vehicle id="76" type="standard_car" route="W_S" depart="116" departLane="1" departSpeed="10" />
    <vehicle id="77" type="standard_car" route="W_E" depart="116" departLane="1" departSpeed="10" />
    <vehicle id="78" type="standard_car" route="E_W" depart="116" departLane="1" departSpeed="10" />
    <vehicle id="79" type="standard_car" route="E_N" depart="116" departLane="1" departSpeed="10" />
    <vehicle id="80" type="standard_car" route="W_E" depart="118" departLane="1" departSpeed="10" />
    <vehicle id="81" type="standard_car" route="E_W" depart="118" departLane="1" departSpeed="10" />
    <vehicle id="82" type="standard_car" route="E_W" depart="119" departLane="1" departSpeed="10" />
    <vehicle id="83" type="standard_car" route="W_E" depart="119" departLane="1" departSpeed="10" />
    <vehicle id="84" type="standard_car" route="W_S" depart="120" departLane="1" departSpeed="10" />
    <vehicle id="85" type="standard_car" route="E_N" depart="120" departLane="1" departSpeed="10" />
    <vehicle id="86" type="standard_car" route="E_W" depart="120" departLane="1" departSpeed="10" />
    <vehicle id="87" type="standard_car" route="W_E" depart="120" departLane="1" departSpeed="10" />
    <vehicle id="88" type="standard_car" route="E_W" depart="121" departLane="1" departSpeed="10" />
    <vehicle id="89" type="standard_car" route="W_S" depart="122" departLane="1" departSpeed="10" />
    <vehicle id="90" type="standard_car" route="W_E" depart="122" departLane="1" departSpeed="10" />
    <vehicle id="91" type="standard_car" route="E_W" depart="123" departLane="1" departSpeed="10" />
    <vehicle id="92" type="standard_car" route="E_W" depart="123" departLane="1" departSpeed="10" />
    <vehicle id="93" type="standard_car" route="W_E" depart="124" departLane="1" departSpeed="10" />
    <vehicle id="94" type="standard_car" route="E_W" depart="124" departLane="1" departSpeed="10" />
    <vehicle id="95" type="standard_car" route="W_S" depart="124" departLane="1" departSpeed="10" />
    <vehicle id="96" type="standard_car" route="W_E" depart="125" departLane="1" departSpeed="10" />
    <vehicle id="97" type="standard_car" route="E_W" depart="126" departLane="1" departSpeed="10" />
    <vehicle id="98" type="standard_car" route="W_E" depart="127" departLane="1" departSpeed="10" />
    <vehicle id="99" type="standard_car" route="W_E" depart="127" departLane="1" departSpeed="10" />
    <vehicle id="100" type="standard_car" route="E_W" depart="128" departLane="1" departSpeed="10" />
    <vehicle id="101" type="standard_car" route="W_S" depart="128" departLane="1" departSpeed="10" />
    <vehicle id="102" type="standard_car" route="W_E" depart="129" departLane="1" departSpeed="10" />
    <vehicle id="103" type="standard_car" route="E_W" depart="129" departLane="1" departSpeed="10" />
    <vehicle id="104" type="standard_car" route="E_W" depart="130" departLane="1" departSpeed="10" />
    <vehicle id="105" type="standard_car" route="E_W" depart="130" departLane="1" departSpeed="10" />
    <vehicle id="106" type="standard_car" route="W_S" depart="131" departLane="1" departSpeed="10" />
    <vehicle id="107" type="standard_car" route="W_E" depart="131" departLane="1" departSpeed="10" />
    <vehicle id="108" type="standard_car" route="E_W" depart="132" departLane="1" departSpeed="10" />
    <vehicle id="109" type="standard_car" route="E_N" depart="132" departLane="1" departSpeed="10" />
    <vehicle id="110" type="standard_car" route="W_E" depart="132" departLane="1" departSpeed="10" />
    <vehicle id="111" type="standard_car" route="E_W" depart="134" departLane="1" departSpeed="10" />
    <vehicle id="112" type="standard_car" route="E_N" depart="134" departLane="1" departSpeed="10" />
    <vehicle id="113" type="standard_car" route="W_E" depart="134" departLane="1" departSpeed="10" />
    <vehicle id="114" type="standard_car" route="W_E" depart="134" departLane="1" departSpeed="10" />
    <vehicle id="115" type="standard_car" route="W_E" depart="135" departLane="1" departSpeed="10" />
    <vehicle id="116" type="standard_car" route="E_W" depart="136" departLane="1" departSpeed="10" />
    <vehicle id="117" type="standard_car" route="E_N" depart="136" departLane="1" departSpeed="10" />
    <vehicle id="118" type="standard_car" route="W_E" depart="136" departLane="1" departSpeed="10" />
    <vehicle id="119" type="standard_car" route="E_W" depart="137" departLane="1" departSpeed="10" />
    <vehicle id="120" type="standard_car" route="E_W" depart="139" departLane="1" departSpeed="10" />
    <vehicle id="121" type="standard_car" route="E_W" depart="139" departLane="1" departSpeed="10" />
    <vehicle id="122" type="standard_car" route="E_N" depart="139" departLane="1" departSpeed="10" />
    <vehicle id="123" type="standard_car" route="E_W" depart="143" departLane="1" departSpeed="10" />
    <vehicle id="124" type="standard_car" route="E_W" depart="144" departLane="1" departSpeed="10" />
    <vehicle id="125" type="standard_car" route="S_N" depart="148" departLane="1" departSpeed="10" />
    <vehicle id="126" type="standard_car" route="S_N" depart="148" departLane="1" departSpeed="10" />
    <vehicle id="127" type="standard_car" route="S_N" depart="151" departLane="1" departSpeed="10" />
    <vehicle id="128" type="standard_car" route="S_N" depart="151" departLane="1" departSpeed="10" />
    <vehicle id="129" type="standard_car" route="S_N" depart="153" departLane="1" departSpeed="10" />
    <vehicle id="130" type="standard_car" route="S_N" depart="153" departLane="1" departSpeed="10" />
    <vehicle id="131" type="standard_car" route="S_N" depart="154" departLane="1" departSpeed="10" />
    <vehicle id="132" type="standard_car" route="S_N" depart="154" departLane="1" departSpeed="10" />
    <vehicle id="133" type="standard_car" route="S_N" depart="155" departLane="1" departSpeed="10" />
    <vehicle id="134" type="standard_car" route="S_N" depart="155" departLane="1" departSpeed="10" />
    <vehicle id="135" type="standard_car" route="N_S" depart="166" departLane="1" departSpeed="10" />
    <vehicle id="136" type="standard_car" route="N_S" depart="166" departLane="1" departSpeed="10" />
    <vehicle id="137" type="standard_car" route="N_S" depart="167" departLane="1" departSpeed="10" />
    <vehicle id="138" type="standard_car" route="S_N" depart="168" departLane="1" departSpeed="10" />
    <vehicle id="139" type="standard_car" route="N_S" depart="168" departLane="1" departSpeed="10" />
    <vehicle id="140" type="standard_car" route="S_N" depart="168" departLane="1" departSpeed="10" />
    <vehicle id="141" type="standard_car" route="N_S" depart="169" departLane="1" departSpeed="10" />
    <vehicle id="142" type="standard_car" route="N_S" depart="169" departLane="1" departSpeed="10" />
    <vehicle id="143" type="standard_car" route="N_S" depart="171" departLane="1" departSpeed="10" />
    <vehicle id="144" type="standard_car" route="S_N" depart="172" departLane="1" departSpeed="10" />
    <vehicle id="145" type="standard_car" route="S_N" depart="172" departLane="1" departSpeed="10" />
    <vehicle id="146" type="standard_car" route="S_N" depart="175" departLane="1" departSpeed="10" />
    <vehicle id="147" type="standard_car" route="S_N" depart="175" departLane="1" departSpeed="10" />
    <vehicle id="148" type="standard_car" route="S_N" depart="177" departLane="1" departSpeed="10" />
    <vehicle id="149" type="standard_car" route="S_N" depart="177" departLane="1" departSpeed="10" />
    <vehicle id="150" type="standard_car" route="S_N" depart="180" departLane="1" departSpeed="10" />
    <vehicle id="151" type="standard_car" route="S_N" depart="180" departLane="1" departSpeed="10" />
    <vehicle id="152" type="standard_car" route="S_N" depart="182" departLane="1" departSpeed="10" />
    <vehicle id="153" type="standard_car" route="S_N" depart="182" departLane="1" departSpeed="10" />
    <vehicle id="154" type="standard_car" route="E_N" depart="208" departLane="1" departSpeed="10" />
    <vehicle id="155" type="standard_car" route="E_W" depart="210" departLane="1" departSpeed="10" />
    <vehicle id="156" type="standard_car" route="W_E" depart="210" departLane="1" departSpeed="10" />
    <vehicle id="157" type="standard_car" route="W_E" depart="210" departLane="1" departSpeed="10" />
    <vehicle id="158" type="standard_car" route="E_N" depart="210" departLane="1" departSpeed="10" />
    <vehicle id="159" type="standard_car" route="E_W" depart="211" departLane="1" departSpeed="10" />
    <vehicle id="160" type="standard_car" route="E_N" depart="212" departLane="1" departSpeed="10" />
    <vehicle id="161" type="standard_car" route="W_E" depart="212" departLane="1" departSpeed="10" />
    <vehicle id="162" type="standard_car" route="W_E" depart="212" departLane="1" departSpeed="10" />
    <vehicle id="163" type="standard_car" route="W_E" depart="213" departLane="1" departSpeed="10" />
    <vehicle id="164" type="standard_car" route="E_W" depart="213" departLane="1" departSpeed="10" />
    <vehicle id="165" type="standard_car" route="W_E" depart="213" departLane="1" departSpeed="10" />
    <vehicle id="166" type="standard_car" route="E_W" depart="214" departLane="1" departSpeed="10" />
    <vehicle id="167" type="standard_car" route="E_N" depart="214" departLane="1" departSpeed="10" />
    <vehicle id="168" type="standard_car" route="W_E" depart="215" departLane="1" departSpeed="10" />
    <vehicle id="169" type="standard_car" route="W_E" depart="215" departLane="1" departSpeed="10" />
    <vehicle id="170" type="standard_car" route="E_N" depart="216" departLane="1" departSpeed="10" />
    <vehicle id="171" type="standard_car" route="W_E" depart="216" departLane="1" departSpeed="10" />
    <vehicle id="172" type="standard_car" route="E_W" depart="216" departLane="1" departSpeed="10" />
    <vehicle id="173" type="standard_car" route="W_E" depart="216" departLane="1" departSpeed="10" />
    <vehicle id="174" type="standard_car" route="E_W" depart="217" departLane="1" departSpeed="10" />
    <vehicle id="175" type="standard_car" route="W_E" depart="218" departLane="1" departSpeed="10" />
    <vehicle id="176" type="standard_car" route="W_E" depart="218" departLane="1" departSpeed="10" />
    <vehicle id="177" type="standard_car" route="E_W" depart="219" departLane="1" departSpeed="10" />
    <vehicle id="178" type="standard_car" route="E_W" depart="219" departLane="1" departSpeed="10" />
    <vehicle id="179" type="standard_car" route="W_E" depart="219" departLane="1" departSpeed="10" />
    <vehicle id="180" type="standard_car" route="W_E" depart="220" departLane="1" departSpeed="10" />
    <vehicle id="181" type="standard_car" route="E_W" depart="220" departLane="1" departSpeed="10" />
    <vehicle id="182" type="standard_car" route="E_W" depart="220" departLane="1" departSpeed="10" />
    <vehicle id="183" type="standard_car" route="W_E" depart="221" departLane="1" departSpeed="10" />
    <vehicle id="184" type="standard_car" route="E_W" depart="221" departLane="1" departSpeed="10" />
    <vehicle id="185" type="standard_car" route="E_W" depart="222" departLane="1" departSpeed="10" />
    <vehicle id="186" type="standard_car" route="W_E" depart="222" departLane="1" departSpeed="10" />
    <vehicle id="187" type="standard_car" route="W_E" depart="223" departLane="1" departSpeed="10" />
    <vehicle id="188" type="standard_car" route="W_E" depart="223" departLane="1" departSpeed="10" />
    <vehicle id="189" type="standard_car" route="E_W" depart="223" departLane="1" departSpeed="10" />
    <vehicle id="190" type="standard_car" route="W_S" depart="223" departLane="1" departSpeed="10" />
    <vehicle id="191" type="standard_car" route="W_E" depart="225" departLane="1" departSpeed="10" />
    <vehicle id="192" type="standard_car" route="E_W" depart="225" departLane="1" departSpeed="10" />
    <vehicle id="193" type="standard_car" route="E_W" depart="225" departLane="1" departSpeed="10" />
    <vehicle id="194" type="standard_car" route="E_W" depart="226" departLane="1" departSpeed="10" />
    <vehicle id="195" type="standard_car" route="W_S" depart="226" departLane="1" departSpeed="10" />
    <vehicle id="196" type="standard_car" route="E_W" depart="227" departLane="1" departSpeed="10" />
    <vehicle id="197" type="standard_car" route="W_E" depart="227" departLane="1" departSpeed="10" />
    <vehicle id="198" type="standard_car" route="E_W" depart="228" departLane="1" departSpeed="10" />
    <vehicle id="199" type="standard_car" route="E_W" depart="229" departLane="1" departSpeed="10" />
    <vehicle id="200" type="standard_car" route="W_E" depart="229" departLane="1" departSpeed="10" />
    <vehicle id="201" type="standard_car" route="E_W" depart="229" departLane="1" departSpeed="10" />
    <vehicle id="202" type="standard_car" route="W_E" depart="229" departLane="1" departSpeed="10" />
    <vehicle id="203" type="standard_car" route="W_E" depart="230" departLane="1" departSpeed="10" />
    <vehicle id="204" type="standard_car" route="W_E" depart="230" departLane="1" departSpeed="10" />
    <vehicle id="205" type="standard_car" route="E_W" depart="231" departLane="1" departSpeed="10" />
    <vehicle id="206" type="standard_car" route="E_W" depart="232" departLane="1" departSpeed="10" />
    <vehicle id="207" type="standard_car" route="W_E" depart="232" departLane="1" departSpeed="10" />
    <vehicle id="208" type="standard_car" route="E_W" depart="235" departLane="1" departSpeed="10" />
    <vehicle id="209" type="standard_car" route="E_W" depart="243" departLane="1" departSpeed="10" />
    <vehicle id="210" type="standard_car" route="E_W" depart="244" departLane="1" departSpeed="10" />
    <vehicle id="211" type="standard_car" route="S_N" depart="251" departLane="1" departSpeed="10" />
    <vehicle id="212" type="standard_car" route="S_N" depart="251" departLane="1" departSpeed="10" />
    <vehicle id="213" type="standard_car" route="S_N" depart="252" departLane="1" departSpeed="10" />
    <vehicle id="214" type="standard_car" route="S_N" depart="252" departLane="1" departSpeed="10" />
    <vehicle id="215" type="standard_car" route="S_N" depart="254" departLane="1" departSpeed="10" />
    <vehicle id="216" type="standard_car" route="S_N" depart="254" departLane="1" departSpeed="10" />
    <vehicle id="217" type="standard_car" route="S_N" depart="255" departLane="1" departSpeed="10" />
    <vehicle id="218" type="standard_car" route="S_N" depart="255" departLane="1" departSpeed="10" />
    <vehicle id="219" type="standard_car" route="S_N" depart="256" departLane="1" departSpeed="10" />
    <vehicle id="220" type="standard_car" route="S_N" depart="256" departLane="1" departSpeed="10" />
    <vehicle id="221" type="standard_car" route="S_N" depart="257" departLane="1" departSpeed="10" />
    <vehicle id="222" type="standard_car" route="S_N" depart="257" departLane="1" departSpeed="10" />
    <vehicle id="223" type="standard_car" route="S_N" depart="261" departLane="1" departSpeed="10" />
    <vehicle id="224" type="standard_car" route="S_N" depart="261" departLane="1" departSpeed="10" />
    <vehicle id="225" type="standard_car" route="S_N" depart="264" departLane="1" departSpeed="10" />
    <vehicle id="226" type="standard_car" route="S_N" depart="264" departLane="1" departSpeed="10" />
    <vehicle id="227" type="standard_car" route="S_N" depart="266" departLane="1" departSpeed="10" />
    <vehicle id="228" type="standard_car" route="S_N" depart="266" departLane="1" departSpeed="10" />
    <vehicle id="229" type="standard_car" route="S_N" depart="268" departLane="1" departSpeed="10" />
    <vehicle id="230" type="standard_car" route="S_N" depart="268" departLane="1" departSpeed="10" />
    <vehicle id="231" type="standard_car" route="N_S" depart="269" departLane="1" departSpeed="10" />
    <vehicle id="232" type="standard_car" route="N_S" depart="269" departLane="1" departSpeed="10" />
    <vehicle id="233" type="standard_car" route="S_N" depart="270" departLane="1" departSpeed="10" />
    <vehicle id="234" type="standard_car" route="S_N" depart="270" departLane="1" departSpeed="10" />
    <vehicle id="235" type="standard_car" route="N_S" depart="270" departLane="1" departSpeed="10" />
    <vehicle id="236" type="standard_car" route="N_S" depart="271" departLane="1" departSpeed="10" />
    <vehicle id="237" type="standard_car" route="S_N" depart="272" departLane="1" departSpeed="10" />
    <vehicle id="238" type="standard_car" route="S_N" depart="272" departLane="1" departSpeed="10" />
    <vehicle id="239" type="standard_car" route="S_N" depart="274" departLane="1" departSpeed="10" />
    <vehicle id="240" type="standard_car" route="S_N" depart="274" departLane="1" departSpeed="10" />
    <vehicle id="241" type="standard_car" route="S_N" depart="277" departLane="1" departSpeed="10" />
    <vehicle id="242" type="standard_car" route="S_N" depart="277" departLane="1" departSpeed="10" />
    <vehicle id="243" type="standard_car" route="S_N" depart="280" departLane="1" departSpeed="10" />
    <vehicle id="244" type="standard_car" route="S_N" depart="280" departLane="1" departSpeed="10" />
    <vehicle id="245" type="standard_car" route="N_S" depart="280" departLane="1" departSpeed="10" />
    <vehicle id="246" type="standard_car" route="N_S" depart="283" departLane="1" departSpeed="10" />
    <vehicle id="247" type="standard_car" route="N_S" depart="286" departLane="1" departSpeed="10" />
    <vehicle id="248" type="standard_car" route="N_S" depart="287" departLane="1" departSpeed="10" />
    <vehicle id="249" type="standard_car" route="N_S" depart="289" departLane="1" departSpeed="10" />
    <vehicle id="250" type="standard_car" route="E_N" depart="311" departLane="1" departSpeed="10" />
    <vehicle id="251" type="standard_car" route="E_W" depart="313" departLane="1" departSpeed="10" />
    <vehicle id="252" type="standard_car" route="W_E" depart="313" departLane="1" departSpeed="10" />
    <vehicle id="253" type="standard_car" route="W_E" depart="313" departLane="1" departSpeed="10" />
    <vehicle id="254" type="standard_car" route="E_W" depart="314" departLane="1" departSpeed="10" />
    <vehicle id="255" type="standard_car" route="W_E" depart="314" departLane="1" departSpeed="10" />
    <vehicle id="256" type="standard_car" route="E_W" depart="315" departLane="1" departSpeed="10" />
    <vehicle id="257" type="standard_car" route="W_E" depart="315" departLane="1" departSpeed="10" />
    <vehicle id="258" type="standard_car" route="W_E" depart="316" departLane="1" departSpeed="10" />
    <vehicle id="259" type="standard_car" route="W_E" depart="316" departLane="1" departSpeed="10" />
    <vehicle id="260" type="standard_car" route="E_W" depart="316" departLane="1" departSpeed="10" />
    <vehicle id="261" type="standard_car" route="E_W" depart="316" departLane="1" departSpeed="10" />
    <vehicle id="262" type="standard_car" route="W_E" depart="317" departLane="1" departSpeed="10" />
    <vehicle id="263" type="standard_car" route="W_E" depart="317" departLane="1" departSpeed="10" />
    <vehicle id="264" type="standard_car" route="E_W" depart="317" departLane="1" departSpeed="10" />
    <vehicle id="265" type="standard_car" route="E_W" depart="318" departLane="1" departSpeed="10" />
    <vehicle id="266" type="standard_car" route="W_E" depart="319" departLane="1" departSpeed="10" />
    <vehicle id="267" type="standard_car" route="E_W" depart="319" departLane="1" departSpeed="10" />
    <vehicle id="268" type="standard_car" route="E_W" depart="319" departLane="1" departSpeed="10" />
    <vehicle id="269" type="standard_car" route="W_E" depart="319" departLane="1" departSpeed="10" />
    <vehicle id="270" type="standard_car" route="W_E" depart="321" departLane="1" departSpeed="10" />
    <vehicle id="271" type="standard_car" route="W_S" depart="321" departLane="1" departSpeed="10" />
    <vehicle id="272" type="standard_car" route="E_W" depart="321" departLane="1" departSpeed="10" />
    <vehicle id="273" type="standard_car" route="E_W" depart="321" departLane="1" departSpeed="10" />
    <vehicle id="274" type="standard_car" route="W_E" depart="321" departLane="1" departSpeed="10" />
    <vehicle id="275" type="standard_car" route="W_E" depart="322" departLane="1" departSpeed="10" />
    <vehicle id="276" type="standard_car" route="E_W" depart="323" departLane="1" departSpeed="10" />
    <vehicle id="277" type="standard_car" route="E_N" depart="323" departLane="1" departSpeed="10" />
    <vehicle id="278" type="standard_car" route="E_W" depart="324" departLane="1" departSpeed="10" />
    <vehicle id="279" type="standard_car" route="E_W" depart="326" departLane="1" departSpeed="10" />
    <vehicle id="280" type="standard_car" route="E_W" depart="326" departLane="1" departSpeed="10" />
    <vehicle id="281" type="standard_car" route="E_W" depart="328" departLane="1" departSpeed="10" />
    <vehicle id="282" type="standard_car" route="E_W" depart="329" departLane="1" departSpeed="10" />
    <vehicle id="283" type="standard_car" route="E_W" depart="330" departLane="1" departSpeed="10" />
    <vehicle id="284" type="standard_car" route="E_W" depart="331" departLane="1" departSpeed="10" />
    <vehicle id="285" type="standard_car" route="E_N" depart="331" departLane="1" departSpeed="10" />
    <vehicle id="286" type="standard_car" route="E_N" depart="333" departLane="1" departSpeed="10" />
    <vehicle id="287" type="standard_car" route="E_W" depart="333" departLane="1" departSpeed="10" />
    <vehicle id="288" type="standard_car" route="E_W" depart="334" departLane="1" departSpeed="10" />