<routes>
        <vType accel="1.0" decel="4.5" id="standard_car" length="5.0" minGap="4" maxSpeed="25" sigma="0.5" />
        
        <route id="W_N" edges="W2TL TL2N"/>
        <route id="W_E" edges="W2TL TL2E"/>
        <route id="W_S" edges="W2TL TL2S"/>
        <route id="N_W" edges="N2TL TL2W"/>
        <route id="N_E" edges="N2TL TL2E"/>
        <route id="N_S" edges="N2TL TL2S"/>
        <route id="E_W" edges="E2TL TL2W"/>
        <route id="E_N" edges="E2TL TL2N"/>
        <route id="E_S" edges="E2TL TL2S"/>
        <route id="S_W" edges="S2TL TL2W"/>
        <route id="S_N" edges="S2TL TL2N"/>
        <route id="S_E" edges="S2TL TL2E"/>
    <vehicle id="0" type="standard_car" route="N_E" depart="5" departLane="1" departSpeed="10" />
    <vehicle id="1" type="standard_car" route="E_W" depart="15" departLane="1" departSpeed="10" />
    <vehicle id="2" type="standard_car" route="E_W" depart="15" departLane="1" departSpeed="10" />
    <vehicle id="3" type="standard_car" route="W_E" depart="15" departLane="1" departSpeed="10" />
    <vehicle id="4" type="standard_car" route="W_E" depart="15" departLane="1" departSpeed="10" />
    <vehicle id="5" type="standard_car" route="W_E" depart="17" departLane="1" departSpeed="10" />
    <vehicle id="6" type="standard_car" route="W_E" depart="17" departLane="1" departSpeed="10" />
    <vehicle id="7" type="standard_car" route="W_E" depart="18" departLane="1" departSpeed="10" />
    <vehicle id="8" type="standard_car" route="W_S" depart="18" departLane="1" departSpeed="10" />
    <vehicle id="9" type="standard_car" route="W_E" depart="18" departLane="1" departSpeed="10" />
    <vehicle id="10" type="standard_car" route="W_E" depart="20" departLane="1" departSpeed="10" />
    <vehicle id="11" type="standard_car" route="W_E" depart="21" departLane="1" departSpeed="10" />
    <vehicle id="12" type="standard_car" route="E_N" depart="21" departLane="1" departSpeed="10" />
    <vehicle id="13" type="standard_car" route="W_E" depart="22" departLane="1" departSpeed="10" />
    <vehicle id="14" type="standard_car" route="W_E" depart="23" departLane="1" departSpeed="10" />
    <vehicle id="15" type="standard_car" route="W_E" depart="23" departLane="1" departSpeed="10" />
    <vehicle id="16" type="standard_car" route="E_N" depart="23" departLane="1" departSpeed="10" />
    <vehicle id="17" type="standard_car" route="W_S" depart="25" departLane="1" departSpeed="10" />
    <vehicle id="18" type="standard_car" route="E_W" depart="25" departLane="1" departSpeed="10" />
    <vehicle id="19" type="standard_car" route="W_E" depart="25" departLane="1" departSpeed="10" />
    <vehicle id="20" type="standard_car" route="W_E" depart="25" departLane="1" departSpeed="10" />
    <vehicle id="21" type="standard_car" route="W_E" depart="26" departLane="1" departSpeed="10" />
    <vehicle id="22" type="standard_car" route="W_E" depart="28" departLane="1" departSpeed="10" />
    <vehicle id="23" type="standard_car" route="W_E" depart="28" departLane="1" departSpeed="10" />
    <vehicle id="24" type="standard_car" route="W_S" depart="29" departLane="1" departSpeed="10" />
    <vehicle id="25" type="standard_car" route="W_E" depart="30" departLane="1" departSpeed="10" />
    <vehicle id="26" type="standard_car" route="W_E" depart="31" departLane="1" departSpeed="10" />
    <vehicle id="27" type="standard_car" route="W_E" depart="32" departLane="1" departSpeed="10" />
    <vehicle id="28" type="standard_car" route="W_E" depart="32" departLane="1" departSpeed="10" />
    <vehicle id="29" type="standard_car" route="W_E" depart="34" departLane="1" departSpeed="10" />
    <vehicle id="30" type="standard_car" route="W_E" depart="34" departLane="1" departSpeed="10" />
    <vehicle id="31" type="standard_car" route="E_W" depart="34" departLane="1" departSpeed="10" />
    <vehicle id="32" type="standard_car" route="W_E" depart="36" departLane="1" departSpeed="10" />
    <vehicle id="33" type="standard_car" route="W_E" depart="36" departLane="1" departSpeed="10" />
    <vehicle id="34" type="standard_car" route="W_E" depart="37" departLane="1" departSpeed="10" />
    <vehicle id="35" type="standard_car" route="E_W" depart="37" departLane="1" departSpeed="10" />
    <vehicle id="36" type="standard_car" route="W_E" depart="37" departLane="1" departSpeed="10" />
    <vehicle id="37" type="standard_car" route="W_E" depart="39" departLane="1" departSpeed="10" />
    <vehicle id="38" type="standard_car" route="W_E" depart="39" departLane="1" departSpeed="10" />
    <vehicle id="39" type="standard_car" route="S_N" depart="53" departLane="1" departSpeed="10" />
    <vehicle id="40" type="standard_car" route="S_N" depart="53" departLane="1" departSpeed="10" />
    <vehicle id="41" type="standard_car" route="S_N" depart="55" departLane="1" departSpeed="10" />
    <vehicle id="42" type="standard_car" route="S_N" depart="55" departLane="1" departSpeed="10" />
    <vehicle id="43" type="standard_car" route="S_N" depart="56" departLane="1" departSpeed="10" />
    <vehicle id="44" type="standard_car" route="S_N" depart="56" departLane="1" departSpeed="10" />
    <vehicle id="45" type="standard_car" route="S_N" depart="58" departLane="1" departSpeed="10" />
    <vehicle id="46" type="standard_car" route="S_N" depart="58" departLane="1" departSpeed="10" />
    <vehicle id="47" type="standard_car" route="N_S" depart="66" departLane="1" departSpeed="10" />
    <vehicle id="48" type="standard_car" route="N_S" depart="66" departLane="1" departSpeed="10" />
    <vehicle id="49" type="standard_car" route="N_S" depart="67" departLane="1" departSpeed="10" />
    <vehicle id="50" type="standard_car" route="N_W" depart="68" departLane="1" departSpeed="10" />
    <vehicle id="51" type="standard_car" route="N_S" depart="68" departLane="1" departSpeed="10" />
    <vehicle id="52" type="standard_car" route="N_S" depart="69" departLane="1" departSpeed="10" />
    <vehicle id="53" type="standard_car" route="N_S" depart="70" departLane="1" departSpeed="10" />
    <vehicle id="54" type="standard_car" route="N_S" depart="71" departLane="1" departSpeed="10" />
    <vehicle id="55" type="standard_car" route="N_S" depart="72" departLane="1" departSpeed="10" />
    <vehicle id="56" type="standard_car" route="N_S" depart="73" departLane="1" departSpeed="10" />
    <vehicle id="57" type="standard_car" route="N_S" depart="74" departLane="1" departSpeed="10" />
    <vehicle id="58" type="standard_car" route="N_S" depart="75" departLane="1" departSpeed="10" />
    <vehicle id="59" type="standard_car" route="N_S" depart="76" departLane="1" departSpeed="10" />
    <vehicle id="60" type="standard_car" route="N_S" depart="76" departLane="1" departSpeed="10" />
    <vehicle id="61" type="standard_car" route="N_S" depart="77" departLane="1" departSpeed="10" />
    <vehicle id="62" type="standard_car" route="N_S" depart="78" departLane="1" departSpeed="10" />
    <vehicle id="63" type="standard_car" route="N_E" depart="84" departLane="1" departSpeed="10" />
    <vehicle id="64" type="standard_car" route="W_E" depart="102" departLane="1" departSpeed="10" />
    <vehicle id="65" type="standard_car" route="E_W" depart="102" departLane="1" departSpeed="10" />
    <vehicle id="66" type="standard_car" route="W_E" depart="102" departLane="1" departSpeed="10" />
    <vehicle id="67" type="standard_car" route="W_E" depart="103" departLane="1" departSpeed="10" />
    <vehicle id="68" type="standard_car" route="W_E" depart="103" departLane="1" departSpeed="10" />
    <vehicle id="69" type="standard_car" route="E_W" depart="104" departLane="1" departSpeed="10" />
    <vehicle id="70" type="standard_car" route="W_S" depart="104" departLane="1" departSpeed="10" />
    <vehicle id="71" type="standard_car" route="W_E" depart="105" departLane="1" departSpeed="10" />
    <vehicle id="72" type="standard_car" route="W_E" depart="106" departLane="1" departSpeed="10" />
    <vehicle id="73" type="standard_car" route="E_W" depart="106" departLane="1" departSpeed="10" />
    <vehicle id="74" type="standard_car" route="W_S" depart="106" departLane="1" departSpeed="10" />
    <vehicle id="75" type="standard_car" route="W_E" depart="109" departLane="1" departSpeed="10" />
    <vehicle id="76" type="standard_car" route="W_E" depart="109" departLane="1" departSpeed="10" />
    <vehicle id="77" type="standard_car" route="W_S" depart="110" departLane="1" departSpeed="10" />
    <vehicle id="78" type="standard_car" route="W_E" depart="111" departLane="1" departSpeed="10" />
    <vehicle id="79" type="standard_car" route="W_E" depart="112" departLane="1" departSpeed="10" />
    <vehicle id="80" type="standard_car" route="E_W" depart="112" departLane="1" departSpeed="10" />
    <vehicle id="81" type="standard_car" route="E_W" depart="113" departLane="1" departSpeed="10" />
    <vehicle id="82" type="standard_car" route="W_E" depart="113" departLane="1" departSpeed="10" />
    <vehicle id="83" type="standard_car" route="E_W" depart="113" departLane="1" departSpeed="10" />
    <vehicle id="84" type="standard_car" route="W_E" depart="114" departLane="1" departSpeed="10" />
    <vehicle id="85" type="standard_car" route="W_S" depart="114" departLane="1" departSpeed="10" />
    <vehicle id="86" type="standard_car" route="E_N" depart="115" departLane="1" departSpeed="10" />
    <vehicle id="87" type="standard_car" route="W_E" depart="117" departLane="1" departSpeed="10" />
    <vehicle id="88" type="standard_car" route="E_W" depart="117" departLane="1" departSpeed="10" />
    <vehicle id="89" type="standard_car" route="W_E" depart="117" departLane="1" departSpeed="10" />
    <vehicle id="90" type="standard_car" route="W_E" depart="119" departLane="1" departSpeed="10" />
    <vehicle id="91" type="standard_car" route="W_E" depart="120" departLane="1" departSpeed="10" />
    <vehicle id="92" type="standard_car" route="W_E" depart="122" departLane="1" departSpeed="10" />
    <vehicle id="93" type="standard_car" route="W_S" depart="125" departLane="1" departSpeed="10" />
    <vehicle id="94" type="standard_car" route="W_E" depart="125" departLane="1" departSpeed="10" />
    <vehicle id="95" type="standard_car" route="E_W" depart="125" departLane="1" departSpeed="10" />
    <vehicle id="96" type="standard_car" route="W_E" depart="127" departLane="1" departSpeed="10" />
    <vehicle id="97" type="standard_car" route="W_E" depart="128" departLane="1" departSpeed="10" />
    <vehicle id="98" type="standard_car" route="W_E" depart="128" departLane="1" departSpeed="10" />
    <vehicle id="99" type="standard_car" route="W_E" depart="130" departLane="1" departSpeed="10" />
    <vehicle id="100" type="standard_car" route="W_E" depart="131" departLane="1" departSpeed="10" />
    <vehicle id="101" type="standard_car" route="S_N" depart="140" departLane="1" departSpeed="10" />
    <vehicle id="102" type="standard_car" route="S_N" depart="140" departLane="1" departSpeed="10" />
    <vehicle id="103" type="standard_car" route="S_N" depart="142" departLane="1" departSpeed="10" />
    <vehicle id="104" type="standard_car" route="S_N" depart="142" departLane="1" departSpeed="10" />
    <vehicle id="105" type="standard_car" route="S_N" depart="143" departLane="1" departSpeed="10" />
    <vehicle id="106" type="standard_car" route="S_N" depart="143" departLane="1" departSpeed="10" />
    <vehicle id="107" type="standard_car" route="S_N" depart="145" departLane="1" departSpeed="10" />
    <vehicle id="108" type="standard_car" route="S_N" depart="145" departLane="1" departSpeed="10" />
    <vehicle id="109" type="standard_car" route="N_S" depart="153" departLane="1" departSpeed="10" />
    <vehicle id="110" type="standard_car" route="N_S" depart="154" departLane="1" departSpeed="10" />
    <vehicle id="111" type="standard_car" route="N_S" depart="155" departLane="1" departSpeed="10" />
    <vehicle id="112" type="standard_car" route="N_S" depart="156" departLane="1" departSpeed="10" />
    <vehicle id="113" type="standard_car" route="N_S" depart="159" departLane="1" departSpeed="10" />
    <vehicle id="114" type="standard_car" route="N_S" depart="170" departLane="1" departSpeed="10" />
    <vehicle id="115" type="standard_car" route="N_E" depart="171" departLane="1" departSpeed="10" />
    <vehicle id="116" type="standard_car" route="W_E" depart="189" departLane="1" departSpeed="10" />
    <vehicle id="117" type="standard_car" route="W_E" depart="189" departLane="1" departSpeed="10" />
    <vehicle id="118" type="standard_car" route="E_W" depart="189" departLane="1" departSpeed="10" />
    <vehicle id="119" type="standard_car" route="E_W" depart="189" departLane="1" departSpeed="10" />
    <vehicle id="120" type="standard_car" route="W_E" depart="190" departLane="1" departSpeed="10" />
    <vehicle id="121" type="standard_car" route="W_E" depart="190" departLane="1" departSpeed="10" />
    <vehicle id="122" type="standard_car" route="W_E" depart="192" departLane="1" departSpeed="10" />
    <vehicle id="123" type="standard_car" route="W_E" depart="192" departLane="1" departSpeed="10" />
    <vehicle id="124" type="standard_car" route="E_W" depart="192" departLane="1" departSpeed="10" />
    <vehicle id="125" type="standard_car" route="W_E" depart="193" departLane="1" departSpeed="10" />
    <vehicle id="126" type="standard_car" route="W_E" depart="194" departLane="1" departSpeed="10" />
    <vehicle id="127" type="standard_car" route="E_W" depart="194" departLane="1" departSpeed="10" />
    <vehicle id="128" type="standard_car" route="W_E" depart="195" departLane="1" departSpeed="10" />
    <vehicle id="129" type="standard_car" route="W_E" depart="195" departLane="1" departSpeed="10" />
    <vehicle id="130" type="standard_car" route="E_W" depart="196" departLane="1" departSpeed="10" />
    <vehicle id="131" type="standard_car" route="W_E" depart="197" departLane="1" departSpeed="10" />
    <vehicle id="132" type="standard_car" route="W_E" depart="197" departLane="1" departSpeed="10" />
    <vehicle id="133" type="standard_car" route="E_W" depart="197" departLane="1" departSpeed="10" />
    <vehicle id="134" type="standard_car" route="W_S" depart="198" departLane="1" departSpeed="10" />
    <vehicle id="135" type="standard_car" route="E_W" depart="199" departLane="1" departSpeed="10" />
    <vehicle id="136" type="standard_car" route="E_W" depart="199" departLane="1" departSpeed="10" />
    <vehicle id="137" type="standard_car" route="E_N" depart="200" departLane="1" departSpeed="10" />
    <vehicle id="138" type="standard_car" route="E_W" depart="201" departLane="1" departSpeed="10" />
    <vehicle id="139" type="standard_car" route="W_E" depart="201" departLane="1" departSpeed="10" />
    <vehicle id="140" type="standard_car" route="W_E" depart="201" departLane="1" departSpeed="10" />
    <vehicle id="141" type="standard_car" route="W_S" depart="202" departLane="1" departSpeed="10" />
    <vehicle id="142" type="standard_car" route="E_W" depart="203" departLane="1" departSpeed="10" />
    <vehicle id="143" type="standard_car" route="E_W" depart="203" departLane="1" departSpeed="10" />
    <vehicle id="144" type="standard_car" route="E_N" depart="204" departLane="1" departSpeed="10" />
    <vehicle id="145" type="standard_car" route="E_W" depart="205" departLane="1" departSpeed="10" />
    <vehicle id="146" type="standard_car" route="W_E" depart="205" departLane="1" departSpeed="10" />
    <vehicle id="147" type="standard_car" route="W_E" depart="205" departLane="1" departSpeed="10" />
    <vehicle id="148" type="standard_car" route="W_S" depart="206" departLane="1" departSpeed="10" />
    <vehicle id="149" type="standard_car" route="E_W" depart="206" departLane="1" departSpeed="10" />
    <vehicle id="150" type="standard_car" route="W_E" depart="207" departLane="1" departSpeed="10" />
    <vehicle id="151" type="standard_car" route="W_E" depart="209" departLane="1" departSpeed="10" />
    <vehicle id="152" type="standard_car" route="W_E" depart="209" departLane="1" departSpeed="10" />
    <vehicle id="153" type="standard_car" route="W_E" depart="210" departLane="1" departSpeed="10" />
    <vehicle id="154" type="standard_car" route="E_W" depart="211" departLane="1" departSpeed="10" />
    <vehicle id="155" type="standard_car" route="W_E" depart="211" departLane="1" departSpeed="10" />
    <vehicle id="156" type="standard_car" route="E_W" depart="211" departLane="1" departSpeed="10" />
    <vehicle id="157" type="standard_car" route="W_E" depart="212" departLane="1" departSpeed="10" />
    <vehicle id="158" type="standard_car" route="E_W" depart="213" departLane="1" departSpeed="10" />
    <vehicle id="159" type="standard_car" route="W_E" depart="214" departLane="1" departSpeed="10" />
    <vehicle id="160" type="standard_car" route="E_N" depart="214" departLane="1" departSpeed="10" />
    <vehicle id="161" type="standard_car" route="E_W" depart="214" departLane="1" departSpeed="10" />
    <vehicle id="162" type="standard_car" route="W_E" depart="214" departLane="1" departSpeed="10" />
    <vehicle id="163" type="standard_car" route="W_E" depart="216" departLane="1" departSpeed="10" />
    <vehicle id="164" type="standard_car" route="W_E" depart="217" departLane="1" departSpeed="10" />
    <vehicle id="165" type="standard_car" route="W_E" depart="217" departLane="1" departSpeed="10" />
    <vehicle id="166" type="standard_car" route="E_W" depart="217" departLane="1" departSpeed="10" />
    <vehicle id="167" type="standard_car" route="E_W" depart="218" departLane="1" departSpeed="10" />
    <vehicle id="168" type="standard_car" route="W_E" depart="219" departLane="1" departSpeed="10" />
    <vehicle id="169" type="standard_car" route="E_W" depart="219" departLane="1" departSpeed="10" />
    <vehicle id="170" type="standard_car" route="W_E" depart="219" departLane="1" departSpeed="10" />
    <vehicle id="171" type="standard_car" route="W_E" depart="220" departLane="1" departSpeed="10" />
    <vehicle id="172" type="standard_car" route="W_S" depart="220" departLane="1" departSpeed="10" />
    <vehicle id="173" type="standard_car" route="W_N" depart="222" departLane="1" departSpeed="10" />
    <vehicle id="174" type="standard_car" route="W_E" depart="222" departLane="1" departSpeed="10" />
    <vehicle id="175" type="standard_car" route="S_N" depart="227" departLane="1" departSpeed="10" />
    <vehicle id="176" type="standard_car" route="S_N" depart="227" departLane="1" departSpeed="10" />
    <vehicle id="177" type="standard_car" route="S_N" depart="227" departLane="1" departSpeed="10" />
    <vehicle id="178" type="standard_car" route="S_N" depart="227" departLane="1" departSpeed="10" />
    <vehicle id="179" type="standard_car" route="S_N" depart="229" departLane="1" departSpeed="10" />
    <vehicle id="180" type="standard_car" route="S_N" depart="229" departLane="1" departSpeed="10" />
    <vehicle id="181" type="standard_car" route="N_S" depart="240" departLane="1" departSpeed="10" />
    <vehicle id="182" type="standard_car" route="N_S" depart="241" departLane="1" departSpeed="10" />
    <vehicle id="183" type="standard_car" route="N_S" depart="242" departLane="1" departSpeed="10" />
    <vehicle id="184" type="standard_car" route="N_S" depart="242" departLane="1" departSpeed="10" />
    <vehicle id="185" type="standard_car" route="N_S" depart="243" departLane="1" departSpeed="10" />
    <vehicle id="186" type="standard_car" route="N_S" depart="244" departLane="1" departSpeed="10" />
    <vehicle id="187" type="standard_car" route="N_S" depart="244" departLane="1" departSpeed="10" />
    <vehicle id="188" type="standard_car" route="N_S" depart="246" departLane="1" departSpeed="10" />
    <vehicle id="189" type="standard_car" route="N_S" depart="246" departLane="1" departSpeed="10" />
    <vehicle id="190" type="standard_car" route="N_S" depart="247" departLane="1" departSpeed="10" />
    <vehicle id="191" type="standard_car" route="N_S" depart="249" departLane="1" departSpeed="10" />
    <vehicle id="192" type="standard_car" route="N_S" depart="249" departLane="1" departSpeed="10" />
    <vehicle id="193" type="standard_car" route="N_S" depart="250" departLane="1" departSpeed="10" />
    <vehicle id="194" type="standard_car" route="N_E" depart="258" departLane="1" departSpeed="10" />
    <vehicle id="195" type="standard_car" route="N_E" depart="260" departLane="1" departSpeed="10" />
    <vehicle id="196" type="standard_car" route="N_E" depart="262" departLane="1" departSpeed="10" />
    <vehicle id="197" type="standard_car" route="E_N" depart="274" departLane="1" departSpeed="10" />
    <vehicle id="198" type="standard_car" route="W_E" depart="276" departLane="1" departSpeed="10" />
    <vehicle id="199" type="standard_car" route="W_E" depart="276" departLane="1" departSpeed="10" />
    <vehicle id="200" type="standard_car" route="E_W" depart="276" departLane="1" departSpeed="10" />
    <vehicle id="201" type="standard_car" route="W_E" depart="277" departLane="1" departSpeed="10" />
    <vehicle id="202" type="standard_car" route="E_W" depart="277" departLane="1" departSpeed="10" />
    <vehicle id="203" type="standard_car" route="W_E" depart="278" departLane="1" departSpeed="10" />
    <vehicle id="204" type="standard_car" route="E_W" depart="278" departLane="1" departSpeed="10" />
    <vehicle id="205" type="standard_car" route="E_W" depart="279" departLane="1" departSpeed="10" />
    <vehicle id="206" type="standard_car" route="W_E" depart="279" departLane="1" departSpeed="10" />
    <vehicle id="207" type="standard_car" route="W_E" depart="279" departLane="1" departSpeed="10" />
    <vehicle id="208" type="standard_car" route="E_W" depart="280" departLane="1" departSpeed="10" />
    <vehicle id="209" type="standard_car" route="E_W" depart="281" departLane="1" departSpeed="10" />
    <vehicle id="210" type="standard_car" route="W_E" depart="281" departLane="1" departSpeed="10" />
    <vehicle id="211" type="standard_car" route="W_E" depart="281" departLane="1" departSpeed="10" />
    <vehicle id="212" type="standard_car" route="E_N" depart="282" departLane="1" departSpeed="10" />
    <vehicle id="213" type="standard_car" route="E_W" depart="282" departLane="1" departSpeed="10" />
    <vehicle id="214" type="standard_car" route="E_W" depart="284" departLane="1" departSpeed="10" />
    <vehicle id="215" type="standard_car" route="E_W" depart="285" departLane="1" departSpeed="10" />
    <vehicle id="216" type="standard_car" route="W_S" depart="285" departLane="1" departSpeed="10" />
    <vehicle id="217" type="standard_car" route="W_E" depart="285" departLane="1" departSpeed="10" />
    <vehicle id="218" type="standard_car" route="E_W" depart="286" departLane="1" departSpeed="10" />
    <vehicle id="219" type="standard_car" route="W_E" depart="286" departLane="1" departSpeed="10" />
    <vehicle id="220" type="standard_car" route="E_W" depart="287" departLane="1" departSpeed="10" />
    <vehicle id="221" type="standard_car" route="W_E" depart="288" departLane="1" departSpeed="10" />
    <vehicle id="222" type="standard_car" route="E_W" depart="289" departLane="1" departSpeed="10" />
    <vehicle id="223" type="standard_car" route="E_W" depart="290" departLane="1" departSpeed="10" />
    <vehicle id="224" type="standard_car" route="W_E" depart="290" departLane="1" departSpeed="10" />
    <vehicle id="225" type="standard_car" route="W_E" depart="291" departLane="1" departSpeed="10" />
    <vehicle id="226" type="standard_car" route="E_N" depart="291" departLane="1" departSpeed="10" />
    <vehicle id="227" type="standard_car" route="W_E" depart="292" departLane="1" departSpeed="10" />
    <vehicle id="228" type="standard_car" route="W_S" depart="292" departLane="1" departSpeed="10" />
    <vehicle id="229" type="standard_car" route="E_W" depart="292" departLane="1" departSpeed="10" />
    <vehicle id="230" type="standard_car" route="E_N" depart="293" departLane="1" departSpeed="10" />
    <vehicle id="231" type="standard_car" route="W_E" depart="293" departLane="1" departSpeed="10" />
    <vehicle id="232" type="standard_car" route="W_S" depart="294" departLane="1" departSpeed="10" />
    <vehicle id="233" type="standard_car" route="E_W" depart="294" departLane="1" departSpeed="10" />
    <vehicle id="234" type="standard_car" route="E_N" depart="295" departLane="1" departSpeed="10" />
    <vehicle id="235" type="standard_car" route="W_E" depart="295" departLane="1" departSpeed="10" />
    <vehicle id="236" type="standard_car" route="E_W" depart="296" departLane="1" departSpeed="10" />
    <vehicle id="237" type="standard_car" route="E_W" depart="297" departLane="1" departSpeed="10" />
    <vehicle id="238" type="standard_car" route="W_S" depart="297" departLane="1" departSpeed="10" />
    <vehicle id="239" type="standard_car" route="E_W" depart="299" departLane="1" departSpeed="10" />
    <vehicle id="240" type="standard_car" route="E_W" depart="299" departLane="1" departSpeed="10" />
    <vehicle id="241" type="standard_car" route="E_W" depart="300" departLane="1" departSpeed="10" />
    <vehicle id="242" type="standard_car" route="E_W" depart="302" departLane="1" departSpeed="10" />
    <vehicle id="243" type="standard_car" route="E_W" depart="303" departLane="1" departSpeed="10" />
    <vehicle id="244" type="standard_car" route="W_N" depart="306" departLane="1" departSpeed="10" />
    <vehicle id="245" type="standard_car" route="S_N" depart="314" departLane="1" departSpeed="10" />
    <vehicle id="246" type="standard_car" route="S_N" depart="314" departLane="1" departSpeed="10" />
    <vehicle id="247" type="standard_car" route="S_N" depart="314" departLane="1" departSpeed="10" />
    <vehicle id="248" type="standard_car" route="S_N" depart="314" departLane="1" departSpeed="10" />
    <vehicle id="249" type="standard_car" route="S_N" depart="315" departLane="1" departSpeed="10" />
    <vehicle id="250" type="standard_car" route="S_N" depart="315" departLane="1" departSpeed="10" />
    <vehicle id="251" type="standard_car" route="S_N" depart="317" departLane="1" departSpeed="10" />
    <vehicle id="252" type="standard_car" route="S_N" depart="317" departLane="1" departSpeed="10" />
    <vehicle id="253" type="standard_car" route="N_S" depart="327" departLane="1" departSpeed="10" />
    <vehicle id="254" type="standard_car" route="N_S" depart="328" departLane="1" departSpeed="10" />
    <vehicle id="255" type="standard_car" route="N_S" depart="329" departLane="1" departSpeed="10" />
    <vehicle id="256" type="standard_car" route="N_S" depart="330" departLane="1" departSpeed="10" />
    <vehicle id="257" type="standard_car" route="S_E" depart="330" departLane="1" departSpeed="10" />
    <vehicle id="258" type="standard_car" route="S_E" depart="330" departLane="1" departSpeed="10" />
    <vehicle id="259" type="standard_car" route="N_S" depart="331" departLane="1" departSpeed="10" />
    <vehicle id="260" type="standard_car" route="N_E" depart="345" departLane="1" departSpeed="10" />
    <vehicle id="261" type="standard_car" route="N_S" depart="347" departLane="1" departSpeed="10" />
    <vehicle id="262" type="standard_car" route="N_E" depart="349" departLane="1" departSpeed="10" />
    <vehicle id="263" type="standard_car" route="W_E" depart="363" departLane="1" departSpeed="10" />
    <vehicle id="264" type="standard_car" route="W_E" depart="363" departLane="1" departSpeed="10" />
    <vehicle id="265" type="standard_car" route="W_S" depart="363" departLane="1" departSpeed="10" />
    <vehicle id="266" type="standard_car" route="E_W" depart="363" departLane="1" departSpeed="10" />
    <vehicle id="267" type="standard_car" route="E_W" depart="364" departLane="1" departSpeed="10" />
    <vehicle id="268" type="standard_car" route="E_W" depart="365" departLane="1" departSpeed="10" />
    <vehicle id="269" type="standard_car" route="W_E" depart="365" departLane="1" departSpeed="10" />
    <vehicle id="270" type="standard_car" route="W_S" depart="365" departLane="1" departSpeed="10" />
    <vehicle id="271" type="standard_car" route="E_N" depart="367" departLane="1" departSpeed="10" />
    <vehicle id="272" type="standard_car" route="W_E" depart="369" departLane="1" departSpeed="10" />
    <vehicle id="273" type="standard_car" route="E_W" depart="369" departLane="1" departSpeed="10" />
    <vehicle id="274" type="standard_car" route="E_W" depart="370" departLane="1" departSpeed="10" />
    <vehicle id="275" type="standard_car" route="W_E" depart="371" departLane="1" departSpeed="10" />
    <vehicle id="276" type="standard_car" route="E_N" depart="371" departLane="1" departSpeed="10" />
    <vehicle id="277" type="standard_car" route="E_W" depart="372" departLane="1" departSpeed="10" />
    <vehicle id="278" type="standard_car" route="W_E" depart="373" departLane="1" departSpeed="10" />
    <vehicle id="279" type="standard_car" route="W_S" depart="373" departLane="1" departSpeed="10" />
    <vehicle id="280" type="standard_car" route="E_N" depart="374" departLane="1" departSpeed="10" />
    <vehicle id="281" type="standard_car" route="E_W" depart="374" departLane="1" departSpeed="10" />
    <vehicle id="282" type="standard_car" route="W_E" depart="376" departLane="1" departSpeed="10" />
    <vehicle id="283" type="standard_car" route="W_E" depart="376" departLane="1" departSpeed="10" />
    <vehicle id="284" type="standard_car" route="W_E" depart="377" departLane="1" departSpeed="10" />
    <vehicle id="285" type="standard_car" route="W_S" depart="377" departLane="1" departSpeed="10" />
    <vehicle id="286" type="standard_car" route="W_E" depart="379" departLane="1" departSpeed="10" />
    <vehicle id="287" type="standard_car" route="W_E" depart="380" departLane="1" departSpeed="10" />
    <vehicle id="288" type="standard_car" route="W_E" depart="380" departLane="1" departSpeed="10" />