<routes>
             <vType accel="1.0" decel="4.5" id="standard_car" length="5.0" minGap="2.5" maxSpeed="25" sigma="0.5" />
                    
    <trip id="0" depart="0.0" from="ce22" to="ce16" type="standard_car" departLane="random" departSpeed="10" />
    <trip id="1" depart="1.0" from="ce13" to="ce21" type="standard_car" departLane="random" departSpeed="10" />
    <trip id="2" depart="10.0" from="ce22" to="ce27" type="standard_car" departLane="random" departSpeed="10" />
    <trip id="3" depart="11.0" from="ce13" to="ce24" type="standard_car" departLane="random" departSpeed="10" />
    <trip id="4" depart="34.0" from="ce22" to="ce24" type="standard_car" departLane="random" departSpeed="10" />
    <trip id="5" depart="37.0" from="ce30" to="ce24" type="standard_car" departLane="random" departSpeed="10" />
    <trip id="6" depart="45.0" from="ce23" to="ce19" type="standard_car" departLane="random" departSpeed="10" />
    <trip id="7" depart="50.0" from="ce11" to="ce27" type="standard_car" departLane="random" departSpeed="10" />
    <trip id="8" depart="54.0" from="ce20" to="ce29" type="standard_car" departLane="random" departSpeed="10" />
    <trip id="9" depart="56.0" from="ce22" to="ce16" type="standard_car" departLane="random" departSpeed="10" />
    <trip id="10" depart="57.0" from="ce26" to="ce18" type="standard_car" departLane="random" departSpeed="10" />
    <trip id="11" depart="66.0" from="ce11" to="ce24" type="standard_car" departLane="random" departSpeed="10" />
    <trip id="12" depart="66.0" from="ce15" to="ce27" type="standard_car" departLane="random" departSpeed="10" />
    <trip id="13" depart="67.0" from="ce30" to="ce25" type="standard_car" departLane="random" departSpeed="10" />
    <trip id="14" depart="67.0" from="ce22" to="ce27" type="standard_car" departLane="random" departSpeed="10" />
    <trip id="15" depart="70.0" from="ce30" to="ce19" type="standard_car" departLane="random" departSpeed="10" />
    <trip id="16" depart="72.0" from="ce22" to="ce24" type="standard_car" departLane="random" departSpeed="10" />
    <trip id="17" depart="77.0" from="ce30" to="ce12" type="standard_car" departLane="random" departSpeed="10" />
    <trip id="18" depart="80.0" from="ce11" to="ce16" type="standard_car" departLane="random" departSpeed="10" />
    <trip id="19" depart="94.0" from="ce30" to="ce21" type="standard_car" departLane="random" departSpeed="10" />
    <trip id="20" depart="94.0" from="ce22" to="ce24" type="standard_car" departLane="random" departSpeed="10" />
    <trip id="21" depart="98.0" from="ce15" to="ce18" type="standard_car" departLane="random" departSpeed="10" />
    <trip id="22" depart="99.0" from="ce22" to="ce14" type="standard_car" departLane="random" departSpeed="10" />
    <trip id="23" depart="99.0" from="ce20" to="ce18" type="standard_car" departLane="random" departSpeed="10" />
    <trip id="24" depart="100.0" from="ce13" to="ce29" type="standard_car" departLane="random" departSpeed="10" />
    <trip id="25" depart="102.0" from="ce30" to="ce21" type="standard_car" departLane="random" departSpeed="10" />
    <trip id="26" depart="109.0" from="ce30" to="ce24" type="standard_car" departLane="random" departSpeed="10" />
    <trip id="27" depart="111.0" from="ce30" to="ce21" type="standard_car" departLane="random" departSpeed="10" />
    <trip id="28" depart="116.0" from="ce20" to="ce16" type="standard_car" departLane="random" departSpeed="10" />
    <trip id="29" depart="124.0" from="ce22" to="ce14" type="standard_car" departLane="random" departSpeed="10" />
    <trip id="30" depart="133.0" from="ce28" to="ce18" type="standard_car" departLane="random" departSpeed="10" />
    <trip id="31" depart="141.0" from="ce13" to="ce27" type="standard_car" departLane="random" departSpeed="10" />
    <trip id="32" depart="160.0" from="ce22" to="ce24" type="standard_car" departLane="random" departSpeed="10" />
    <trip id="33" depart="180.0" from="ce17" to="ce18" type="standard_car" departLane="random" departSpeed="10" />
    <trip id="34" depart="192.0" from="ce15" to="ce18" type="standard_car" departLane="random" departSpeed="10" />
    <trip id="35" depart="194.0" from="ce30" to="ce16" type="standard_car" departLane="random" departSpeed="10" />
    <trip id="36" depart="205.0" from="ce30" to="ce12" type="standard_car" departLane="random" departSpeed="10" />
    <trip id="37" depart="216.0" from="ce26" to="ce18" type="standard_car" departLane="random" departSpeed="10" />
    <trip id="38" depart="237.0" from="ce28" to="ce24" type="standard_car" departLane="random" departSpeed="10" />
    <trip id="39" depart="238.0" from="ce15" to="ce21" type="standard_car" departLane="random" departSpeed="10" />
    <trip id="40" depart="239.0" from="ce22" to="ce18" type="standard_car" departLane="random" departSpeed="10" />
    <trip id="41" depart="240.0" from="ce11" to="ce24" type="standard_car" departLane="random" departSpeed="10" />
    <trip id="42" depart="240.0" from="ce26" to="ce18" type="standard_car" departLane="random" departSpeed="10" />
    <trip id="43" depart="246.0" from="ce26" to="ce21" type="standard_car" departLane="random" departSpeed="10" />
    <trip id="44" depart="252.0" from="ce20" to="ce19" type="standard_car" departLane="random" departSpeed="10" />
    <trip id="45" depart="259.0" from="ce30" to="ce19" type="standard_car" departLane="random" departSpeed="10" />
    <trip id="46" depart="282.0" from="ce20" to="ce12" type="standard_car" departLane="random" departSpeed="10" />
    <trip id="47" depart="287.0" from="ce11" to="ce27" type="standard_car" departLane="random" departSpeed="10" />
    <trip id="48" depart="293.0" from="ce30" to="ce24" type="standard_car" departLane="random" departSpeed="10" />
    <trip id="49" depart="306.0" from="ce11" to="ce18" type="standard_car" departLane="random" departSpeed="10" />
    <trip id="50" depart="332.0" from="ce23" to="ce25" type="standard_car" departLane="random" departSpeed="10" />
    <trip id="51" depart="354.0" from="ce11" to="ce29" type="standard_car" departLane="random" departSpeed="10" />
    <trip id="52" depart="355.0" from="ce30" to="ce16" type="standard_car" departLane="random" departSpeed="10" />
    <trip id="53" depart="367.0" from="ce30" to="ce25" type="standard_car" departLane="random" departSpeed="10" />
    <trip id="54" depart="368.0" from="ce15" to="ce24" type="standard_car" departLane="random" departSpeed="10" />
    <trip id="55" depart="372.0" from="ce22" to="ce12" type="standard_car" departLane="random" departSpeed="10" />
    <trip id="56" depart="387.0" from="ce30" to="ce14" type="standard_car" departLane="random" departSpeed="10" />
    <trip id="57" depart="392.0" from="ce26" to="ce29" type="standard_car" departLane="random" departSpeed="10" />
    <trip id="58" depart="399.0" from="ce30" to="ce14" type="standard_car" departLane="random" departSpeed="10" />
    <trip id="59" depart="408.0" from="ce15" to="ce29" type="standard_car" departLane="random" departSpeed="10" />
    <trip id="60" depart="413.0" from="ce11" to="ce18" type="standard_car" departLane="random" departSpeed="10" />
    <trip id="61" depart="430.0" from="ce23" to="ce14" type="standard_car" departLane="random" departSpeed="10" />
    <trip id="62" depart="437.0" from="ce15" to="ce19" type="standard_car" departLane="random" departSpeed="10" />
    <trip id="63" depart="447.0" from="ce15" to="ce29" type="standard_car" departLane="random" departSpeed="10" />
    <trip id="64" depart="447.0" from="ce17" to="ce19" type="standard_car" departLane="random" departSpeed="10" />
    <trip id="65" depart="452.0" from="ce23" to="ce27" type="standard_car" departLane="random" departSpeed="10" />
    <trip id="66" depart="455.0" from="ce11" to="ce21" type="standard_car" departLane="random" departSpeed="10" />
    <trip id="67" depart="468.0" from="ce15" to="ce12" type="standard_car" departLane="random" departSpeed="10" />
    <trip id="68" depart="472.0" from="ce26" to="ce14" type="standard_car" departLane="random" departSpeed="10" />
    <trip id="69" depart="486.0" from="ce22" to="ce12" type="standard_car" departLane="random" departSpeed="10" />
    <trip id="70" depart="488.0" from="ce22" to="ce18" type="standard_car" departLane="random" departSpeed="10" />
    <trip id="71" depart="491.0" from="ce20" to="ce12" type="standard_car" departLane="random" departSpeed="10" />
    <trip id="72" depart="494.0" from="ce23" to="ce16" type="standard_car" departLane="random" departSpeed="10" />
    <trip id="73" depart="495.0" from="ce13" to="ce29" type="standard_car" departLane="random" departSpeed="10" />
    <trip id="74" depart="501.0" from="ce20" to="ce16" type="standard_car" departLane="random" departSpeed="10" />
    <trip id="75" depart="505.0" from="ce22" to="ce25" type="standard_car" departLane="random" departSpeed="10" />
    <trip id="76" depart="515.0" from="ce20" to="ce27" type="standard_car" departLane="random" departSpeed="10" />
    <trip id="77" depart="516.0" from="ce26" to="ce29" type="standard_car" departLane="random" departSpeed="10" />
    <trip id="78" depart="520.0" from="ce20" to="ce19" type="standard_car" departLane="random" departSpeed="10" />
    <trip id="79" depart="524.0" from="ce23" to="ce19" type="standard_car" departLane="random" departSpeed="10" />
    <trip id="80" depart="528.0" from="ce11" to="ce25" type="standard_car" departLane="random" departSpeed="10" />
    <trip id="81" depart="528.0" from="ce30" to="ce24" type="standard_car" departLane="random" departSpeed="10" />
    <trip id="82" depart="528.0" from="ce11" to="ce24" type="standard_car" departLane="random" departSpeed="10" />
    <trip id="83" depart="550.0" from="ce22" to="ce29" type="standard_car" departLane="random" departSpeed="10" />
    <trip id="84" depart="564.0" from="ce13" to="ce21" type="standard_car" departLane="random" departSpeed="10" />
    <trip id="85" depart="568.0" from="ce26" to="ce16" type="standard_car" departLane="random" departSpeed="10" />
    <trip id="86" depart="577.0" from="ce20" to="ce24" type="standard_car" departLane="random" departSpeed="10" />
    <trip id="87" depart="579.0" from="ce30" to="ce18" type="standard_car" departLane="random" departSpeed="10" />
    <trip id="88" depart="595.0" from="ce26" to="ce29" type="standard_car" departLane="random" departSpeed="10" />
    <trip id="89" depart="611.0" from="ce30" to="ce18" type="standard_car" departLane="random" departSpeed="10" />
    <trip id="90" depart="620.0" from="ce15" to="ce19" type="standard_car" departLane="random" departSpeed="10" />
    <trip id="91" depart="624.0" from="ce23" to="ce29" type="standard_car" departLane="random" departSpeed="10" />
    <trip id="92" depart="626.0" from="ce22" to="ce19" type="standard_car" departLane="random" departSpeed="10" />
    <trip id="93" depart="634.0" from="ce28" to="ce16" type="standard_car" departLane="random" departSpeed="10" />
    <trip id="94" depart="654.0" from="ce28" to="ce18" type="standard_car" departLane="random" departSpeed="10" />
    <trip id="95" depart="662.0" from="ce22" to="ce19" type="standard_car" departLane="random" departSpeed="10" />
    <trip id="96" depart="671.0" from="ce22" to="ce18" type="standard_car" departLane="random" departSpeed="10" />
    <trip id="97" depart="675.0" from="ce22" to="ce18" type="standard_car" departLane="random" departSpeed="10" />
    <trip id="98" depart="679.0" from="ce22" to="ce21" type="standard_car" departLane="random" departSpeed="10" />
    <trip id="99" depart="695.0" from="ce28" to="ce18" type="standard_car" departLane="random" departSpeed="10" />
    <trip id="100" depart="696.0" from="ce11" to="ce27" type="standard_car" departLane="random" departSpeed="10" />
    <trip id="101" depart="704.0" from="ce13" to="ce29" type="standard_car" departLane="random" departSpeed="10" />
    <trip id="102" depart="713.0" from="ce22" to="ce14" type="standard_car" departLane="random" departSpeed="10" />
    <trip id="103" depart="715.0" from="ce15" to="ce29" type="standard_car" departLane="random" departSpeed="10" />
    <trip id="104" depart="732.0" from="ce22" to="ce27" type="standard_car" departLane="random" departSpeed="10" />
    <trip id="105" depart="734.0" from="ce30" to="ce25" type="standard_car" departLane="random" departSpeed="10" />
    <trip id="106" depart="736.0" from="ce30" to="ce29" type="standard_car" departLane="random" departSpeed="10" />
    <trip id="107" depart="749.0" from="ce13" to="ce16" type="standard_car" departLane="random" departSpeed="10" />
    <trip id="108" depart="757.0" from="ce26" to="ce12" type="standard_car" departLane="random" departSpeed="10" />
    <trip id="109" depart="762.0" from="ce15" to="ce21" type="standard_car" departLane="random" departSpeed="10" />
    <trip id="110" depart="763.0" from="ce23" to="ce21" type="standard_car" departLane="random" departSpeed="10" />
    <trip id="111" depart="797.0" from="ce22" to="ce19" type="standard_car" departLane="random" departSpeed="10" />
    <trip id="112" depart="799.0" from="ce22" to="ce24" type="standard_car" departLane="random" departSpeed="10" />
    <trip id="113" depart="810.0" from="ce30" to="ce24" type="standard_car" departLane="random" departSpeed="10" />
    <trip id="114" depart="813.0" from="ce22" to="ce16" type="standard_car" departLane="random" departSpeed="10" />
    <trip id="115" depart="820.0" from="ce26" to="ce18" type="standard_car" departLane="random" departSpeed="10" />
    <trip id="116" depart="839.0" from="ce13" to="ce29" type="standard_car" departLane="random" departSpeed="10" />
    <trip id="117" depart="841.0" from="ce11" to="ce29" type="standard_car" departLane="random" departSpeed="10" />
    <trip id="118" depart="844.0" from="ce11" to="ce19" type="standard_car" departLane="random" departSpeed="10" />
    <trip id="119" depart="853.0" from="ce20" to="ce14" type="standard_car" departLane="random" departSpeed="10" />
    <trip id="120" depart="863.0" from="ce30" to="ce18" type="standard_car" departLane="random" departSpeed="10" />
    <trip id="121" depart="886.0" from="ce15" to="ce16" type="standard_car" departLane="random" departSpeed="10" />
    <trip id="122" depart="891.0" from="ce28" to="ce27" type="standard_car" departLane="random" departSpeed="10" />
    <trip id="123" depart="892.0" from="ce30" to="ce14" type="standard_car" departLane="random" departSpeed="10" />
    <trip id="124" depart="893.0" from="ce17" to="ce18" type="standard_car" departLane="random" departSpeed="10" />
    <trip id="125" depart="899.0" from="ce11" to="ce24" type="standard_car" departLane="random" departSpeed="10" />
    <trip id="126" depart="908.0" from="ce30" to="ce25" type="standard_car" departLane="random" departSpeed="10" />
    <trip id="127" depart="909.0" from="ce23" to="ce25" type="standard_car" departLane="random" departSpeed="10" />
    <trip id="128" depart="925.0" from="ce15" to="ce29" type="standard_car" departLane="random" departSpeed="10" />
    <trip id="129" depart="926.0" from="ce13" to="ce25" type="standard_car" departLane="random" departSpeed="10" />
    <trip id="130" depart="935.0" from="ce17" to="ce27" type="standard_car" departLane="random" departSpeed="10" />
    <trip id="131" depart="937.0" from="ce22" to="ce16" type="standard_car" departLane="random" departSpeed="10" />
    <trip id="132" depart="944.0" from="ce30" to="ce18" type="standard_car" departLane="random" departSpeed="10" />
    <trip id="133" depart="948.0" from="ce23" to="ce12" type="standard_car" departLane="random" departSpeed="10" />
    <trip id="134" depart="951.0" from="ce13" to="ce25" type="standard_car" departLane="random" departSpeed="10" />
    <trip id="135" depart="954.0" from="ce22" to="ce16" type="standard_car" departLane="random" departSpeed="10" />
    <trip id="136" depart="956.0" from="ce20" to="ce24" type="standard_car" departLane="random" departSpeed="10" />
    <trip id="137" depart="960.0" from="ce30" to="ce18" type="standard_car" departLane="random" departSpeed="10" />
    <trip id="138" depart="961.0" from="ce30" to="ce12" type="standard_car" departLane="random" departSpeed="10" />
    <trip id="139" depart="972.0" from="ce26" to="ce29" type="standard_car" departLane="random" departSpeed="10" />
    <trip id="140" depart="973.0" from="ce22" to="ce14" type="standard_car" departLane="random" departSpeed="10" />
    <trip id="141" depart="1005.0" from="ce30" to="ce12" type="standard_car" departLane="random" departSpeed="10" />
    <trip id="142" depart="1010.0" from="ce20" to="ce18" type="standard_car" departLane="random" departSpeed="10" />
    <trip id="143" depart="1028.0" from="ce15" to="ce25" type="standard_car" departLane="random" departSpeed="10" />
    <trip id="144" depart="1029.0" from="ce22" to="ce25" type="standard_car" departLane="random" departSpeed="10" />
    <trip id="145" depart="1036.0" from="ce22" to="ce27" type="standard_car" departLane="random" departSpeed="10" />
    <trip id="146" depart="1044.0" from="ce22" to="ce18" type="standard_car" departLane="random" departSpeed="10" />
    <trip id="147" depart="1057.0" from="ce22" to="ce16" type="standard_car" departLane="random" departSpeed="10" />
    <trip id="148" depart="1070.0" from="ce11" to="ce29" type="standard_car" departLane="random" departSpeed="10" />
    <trip id="149" depart="1081.0" from="ce30" to="ce24" type="standard_car" departLane="random" departSpeed="10" />
    <trip id="150" depart="1088.0" from="ce13" to="ce24" type="standard_car" departLane="random" departSpeed="10" />
    <trip id="151" depart="1118.0" from="ce11" to="ce29" type="standard_car" departLane="random" departSpeed="10" />
    <trip id="152" depart="1121.0" from="ce30" to="ce18" type="standard_car" departLane="random" departSpeed="10" />
    <trip id="153" depart="1124.0" from="ce22" to="ce18" type="standard_car" departLane="random" departSpeed="10" />
    <trip id="154" depart="1128.0" from="ce30" to="ce18" type="standard_car" departLane="random" departSpeed="10" />
    <trip id="155" depart="1132.0" from="ce20" to="ce18" type="standard_car" departLane="random" departSpeed="10" />
    <trip id="156" depart="1135.0" from="ce22" to="ce12" type="standard_car" departLane="random" departSpeed="10" />
    <trip id="157" depart="1136.0" from="ce30" to="ce27" type="standard_car" departLane="random" departSpeed="10" />
    <trip id="158" depart="1143.0" from="ce30" to="ce16" type="standard_car" departLane="random" departSpeed="10" />
    <trip id="159" depart="1143.0" from="ce30" to="ce27" type="standard_car" departLane="random" departSpeed="10" />
    <trip id="160" depart="1162.0" from="ce17" to="ce19" type="standard_car" departLane="random" departSpeed="10" />
    <trip id="161" depart="1168.0" from="ce30" to="ce29" type="standard_car" departLane="random" departSpeed="10" />
    <trip id="162" depart="1174.0" from="ce26" to="ce29" type="standard_car" departLane="random" departSpeed="10" />
    <trip id="163" depart="1176.0" from="ce28" to="ce14" type="standard_car" departLane="random" departSpeed="10" />
    <trip id="164" depart="1195.0" from="ce11" to="ce21" type="standard_car" departLane="random" departSpeed="10" />
    <trip id="165" depart="1233.0" from="ce13" to="ce25" type="standard_car" departLane="random" departSpeed="10" />
    <trip id="166" depart="1234.0" from="ce30" to="ce27" type="standard_car" departLane="random" departSpeed="10" />
    <trip id="167" depart="1236.0" from="ce15" to="ce27" type="standard_car" departLane="random" departSpeed="10" />
    <trip id="168" depart="1241.0" from="ce20" to="ce18" type="standard_car" departLane="random" departSpeed="10" />
    <trip id="169" depart="1243.0" from="ce13" to="ce24" type="standard_car" departLane="random" departSpeed="10" />
    <trip id="170" depart="1243.0" from="ce11" to="ce16" type="standard_car" departLane="random" departSpeed="10" />
    <trip id="171" depart="1244.0" from="ce30" to="ce27" type="standard_car" departLane="random" departSpeed="10" />
    <trip id="172" depart="1252.0" from="ce22" to="ce24" type="standard_car" departLane="random" departSpeed="10" />
    <trip id="173" depart="1256.0" from="ce20" to="ce18" type="standard_car" departLane="random" departSpeed="10" />
    <trip id="174" depart="1281.0" from="ce22" to="ce27" type="standard_car" departLane="random" departSpeed="10" />
    <trip id="175" depart="1286.0" from="ce30" to="ce24" type="standard_car" departLane="random" departSpeed="10" />
    <trip id="176" depart="1320.0" from="ce23" to="ce25" type="standard_car" departLane="random" departSpeed="10" />
    <trip id="177" depart="1320.0" from="ce17" to="ce27" type="standard_car" departLane="random" departSpeed="10" />
    <trip id="178" depart="1332.0" from="ce22" to="ce24" type="standard_car" departLane="random" departSpeed="10" />
    <trip id="179" depart="1337.0" from="ce30" to="ce16" type="standard_car" departLane="random" departSpeed="10" />
    <trip id="180" depart="1356.0" from="ce23" to="ce21" type="standard_car" departLane="random" departSpeed="10" />
    <trip id="181" depart="1361.0" from="ce28" to="ce29" type="standard_car" departLane="random" departSpeed="10" />
    <trip id="182" depart="1369.0" from="ce26" to="ce29" type="standard_car" departLane="random" departSpeed="10" />
    <trip id="183" depart="1372.0" from="ce11" to="ce19" type="standard_car" departLane="random" departSpeed="10" />
    <trip id="184" depart="1376.0" from="ce22" to="ce19" type="standard_car" departLane="random" departSpeed="10" />
    <trip id="185" depart="1396.0" from="ce26" to="ce18" type="standard_car" departLane="random" departSpeed="10" />
    <trip id="186" depart="1404.0" from="ce20" to="ce29" type="standard_car" departLane="random" departSpeed="10" />
    <trip id="187" depart="1421.0" from="ce28" to="ce16" type="standard_car" departLane="random" departSpeed="10" />
    <trip id="188" depart="1422.0" from="ce13" to="ce21" type="standard_car" departLane="random" departSpeed="10" />
    <trip id="189" depart="1428.0" from="ce26" to="ce21" type="standard_car" departLane="random" departSpeed="10" />
    <trip id="190" depart="1432.0" from="ce11" to="ce14" type="standard_car" departLane="random" departSpeed="10" />
    <trip id="191" depart="1443.0" from="ce15" to="ce27" type="standard_car" departLane="random" departSpeed="10" />
    <trip id="192" depart="1445.0" from="ce22" to="ce12" type="standard_car" departLane="random" departSpeed="10" />
    <trip id="193" depart="1449.0" from="ce13" to="ce29" type="standard_car" departLane="random" departSpeed="10" />
    <trip id="194" depart="1469.0" from="ce30" to="ce27" type="standard_car" departLane="random" departSpeed="10" />
    <trip id="195" depart="1479.0" from="ce13" to="ce16" type="standard_car" departLane="random" departSpeed="10" />
    <trip id="196" depart="1491.0" from="ce22" to="ce18" type="standard_car" departLane="random" departSpeed="10" />
    <trip id="197" depart="1491.0" from="ce22" to="ce29" type="standard_car" departLane="random" departSpeed="10" />
    <trip id="198" depart="1497.0" from="ce22" to="ce25" type="standard_car" departLane="random" departSpeed="10" />
    <trip id="199" depart="1501.0" from="ce28" to="ce21" type="standard_car" departLane="random" departSpeed="10" />
    <trip id="200" depart="1502.0" from="ce26" to="ce19" type="standard_car" departLane="random" departSpeed="10" />
    <trip id="201" depart="1509.0" from="ce22" to="ce27" type="standard_car" departLane="random" departSpeed="10" />
    <trip id="202" depart="1513.0" from="ce11" to="ce16" type="standard_car" departLane="random" departSpeed="10" />
    <trip id="203" depart="1516.0" from="ce26" to="ce24" type="standard_car" departLane="random" departSpeed="10" />
    <trip id="204" depart="1535.0" from="ce11" to="ce27" type="standard_car" departLane="random" departSpeed="10" />
    <trip id="205" depart="1536.0" from="ce13" to="ce18" type="standard_car" departLane="random" departSpeed="10" />
    <trip id="206" depart="1541.0" from="ce30" to="ce12" type="standard_car" departLane="random" departSpeed="10" />
    <trip id="207" depart="1543.0" from="ce28" to="ce16" type="standard_car" departLane="random" departSpeed="10" />
    <trip id="208" depart="1544.0" from="ce30" to="ce24" type="standard_car" departLane="random" departSpeed="10" />
    <trip id="209" depart="1549.0" from="ce23" to="ce25" type="standard_car" departLane="random" departSpeed="10" />
    <trip id="210" depart="1561.0" from="ce22" to="ce19" type="standard_car" departLane="random" departSpeed="10" />
    <trip id="211" depart="1561.0" from="ce28" to="ce14" type="standard_car" departLane="random" departSpeed="10" />
    <trip id="212" depart="1591.0" from="ce13" to="ce18" type="standard_car" departLane="random" departSpeed="10" />
    <trip id="213" depart="1606.0" from="ce22" to="ce18" type="standard_car" departLane="random" departSpeed="10" />
    <trip id="214" depart="1612.0" from="ce26" to="ce12" type="standard_car" departLane="random" departSpeed="10" />
    <trip id="215" depart="1620.0" from="ce30" to="ce16" type="standard_car" departLane="random" departSpeed="10" />
    <trip id="216" depart="1620.0" from="ce23" to="ce18" type="standard_car" departLane="random" departSpeed="10" />
    <trip id="217" depart="1623.0" from="ce30" to="ce18" type="standard_car" departLane="random" departSpeed="10" />
    <trip id="218" depart="1629.0" from="ce23" to="ce29" type="standard_car" departLane="random" departSpeed="10" />
    <trip id="219" depart="1630.0" from="ce11" to="ce18" type="standard_car" departLane="random" departSpeed="10" />
    <trip id="220" depart="1645.0" from="ce26" to="ce24" type="standard_car" departLane="random" departSpeed="10" />
    <trip id="221" depart="1651.0" from="ce23" to="ce25" type="standard_car" departLane="random" departSpeed="10" />
    <trip id="222" depart="1656.0" from="ce15" to="ce21" type="standard_car" departLane="random" departSpeed="10" />
    <trip id="223" depart="1674.0" from="ce13" to="ce18" type="standard_car" departLane="random" departSpeed="10" />
    <trip id="224" depart="1677.0" from="ce17" to="ce14" type="standard_car" departLane="random" departSpeed="10" />
    <trip id="225" depart="1681.0" from="ce11" to="ce21" type="standard_car" departLane="random" departSpeed="10" />
    <trip id="226" depart="1706.0" from="ce28" to="ce24" type="standard_car" departLane="random" departSpeed="10" />
    <trip id="227" depart="1718.0" from="ce28" to="ce16" type="standard_car" departLane="random" departSpeed="10" />
    <trip id="228" depart="1721.0" from="ce20" to="ce24" type="standard_car" departLane="random" departSpeed="10" />
    <trip id="229" depart="1750.0" from="ce26" to="ce16" type="standard_car" departLane="random" departSpeed="10" />
    <trip id="230" depart="1751.0" from="ce20" to="ce29" type="standard_car" departLane="random" departSpeed="10" />
    <trip id="231" depart="1765.0" from="ce26" to="ce27" type="standard_car" departLane="random" departSpeed="10" />
    <trip id="232" depart="1770.0" from="ce23" to="ce21" type="standard_car" departLane="random" departSpeed="10" />
    <trip id="233" depart="1778.0" from="ce28" to="ce29" type="standard_car" departLane="random" departSpeed="10" />
    <trip id="234" depart="1799.0" from="ce26" to="ce12" type="standard_car" departLane="random" departSpeed="10" />
    <trip id="235" depart="1820.0" from="ce15" to="ce29" type="standard_car" departLane="random" departSpeed="10" />
    <trip id="236" depart="1831.0" from="ce22" to="ce16" type="standard_car" departLane="random" departSpeed="10" />
    <trip id="237" depart="1840.0" from="ce30" to="ce18" type="standard_car" departLane="random" departSpeed="10" />
    <trip id="238" depart="1844.0" from="ce17" to="ce19" type="standard_car" departLane="random" departSpeed="10" />
    <trip id="239" depart="1854.0" from="ce22" to="ce12" type="standard_car" departLane="random" departSpeed="10" />
    <trip id="240" depart="1857.0" from="ce26" to="ce27" type="standard_car" departLane="random" departSpeed="10" />
    <trip id="241" depart="1862.0" from="ce28" to="ce24" type="standard_car" departLane="random" departSpeed="10" />
    <trip id="242" depart="1868.0" from="ce15" to="ce21" type="standard_car" departLane="random" departSpeed="10" />
    <trip id="243" depart="1870.0" from="ce20" to="ce12" type="standard_car" departLane="random" departSpeed="10" />
    <trip id="244" depart="1879.0" from="ce28" to="ce16" type="standard_car" departLane="random" departSpeed="10" />
    <trip id="245" depart="1889.0" from="ce30" to="ce21" type="standard_car" departLane="random" departSpeed="10" />
    <trip id="246" depart="1895.0" from="ce20" to="ce14" type="standard_car" departLane="random" departSpeed="10" />
    <trip id="247" depart="1897.0" from="ce20" to="ce18" type="standard_car" departLane="random" departSpeed="10" />
    <trip id="248" depart="1900.0" from="ce23" to="ce24" type="standard_car" departLane="random" departSpeed="10" />
    <trip id="249" depart="1919.0" from="ce22" to="ce19" type="standard_car" departLane="random" departSpeed="10" />
    <trip id="250" depart="1921.0" from="ce11" to="ce25" type="standard_car" departLane="random" departSpeed="10" />
    <trip id="251" depart="1929.0" from="ce26" to="ce24" type="standard_car" departLane="random" departSpeed="10" />
    <trip id="252" depart="1938.0" from="ce28" to="ce18" type="standard_car" departLane="random" departSpeed="10" />
    <trip id="253" depart="1939.0" from="ce22" to="ce25" type="standard_car" departLane="random" departSpeed="10" />
    <trip id="254" depart="1940.0" from="ce15" to="ce16" type="standard_car" departLane="random" departSpeed="10" />
    <trip id="255" depart="1940.0" from="ce15" to="ce18" type="standard_car" departLane="random" departSpeed="10" />
    <trip id="256" depart="1947.0" from="ce13" to="ce14" type="standard_car" departLane="random" departSpeed="10" />