<routes>
             <vType accel="1.0" decel="4.5" id="standard_car" length="5.0" minGap="2.5" maxSpeed="25" sigma="0.5" />
                    
    <trip id="0" depart="9.0" from="ce6" to="ce2" type="standard_car" departLane="random" departSpeed="10" />
    <trip id="1" depart="12.0" from="ce6" to="ce4" type="standard_car" departLane="random" departSpeed="10" />
    <trip id="2" depart="17.0" from="ce6" to="ce2" type="standard_car" departLane="random" departSpeed="10" />
    <trip id="3" depart="30.0" from="ce6" to="ce4" type="standard_car" departLane="random" departSpeed="10" />
    <trip id="4" depart="34.0" from="ce6" to="ce2" type="standard_car" departLane="random" departSpeed="10" />
    <trip id="5" depart="37.0" from="ce6" to="ce7" type="standard_car" departLane="random" departSpeed="10" />
    <trip id="6" depart="47.0" from="ce6" to="ce7" type="standard_car" departLane="random" departSpeed="10" />
    <trip id="7" depart="54.0" from="ce6" to="ce7" type="standard_car" departLane="random" departSpeed="10" />
    <trip id="8" depart="68.0" from="ce6" to="ce2" type="standard_car" departLane="random" departSpeed="10" />
    <trip id="9" depart="91.0" from="ce6" to="ce5" type="standard_car" departLane="random" departSpeed="10" />
    <trip id="10" depart="92.0" from="ce6" to="ce2" type="standard_car" departLane="random" departSpeed="10" />
    <trip id="11" depart="93.0" from="ce6" to="ce4" type="standard_car" departLane="random" departSpeed="10" />
    <trip id="12" depart="98.0" from="ce6" to="ce2" type="standard_car" departLane="random" departSpeed="10" />
    <trip id="13" depart="100.0" from="ce3" to="ce2" type="standard_car" departLane="random" departSpeed="10" />
    <trip id="14" depart="105.0" from="ce6" to="ce5" type="standard_car" departLane="random" departSpeed="10" />
    <trip id="15" depart="110.0" from="ce6" to="ce4" type="standard_car" departLane="random" departSpeed="10" />
    <trip id="16" depart="112.0" from="ce6" to="ce4" type="standard_car" departLane="random" departSpeed="10" />
    <trip id="17" depart="118.0" from="ce8" to="ce4" type="standard_car" departLane="random" departSpeed="10" />
    <trip id="18" depart="123.0" from="ce6" to="ce7" type="standard_car" departLane="random" departSpeed="10" />
    <trip id="19" depart="150.0" from="ce1" to="ce7" type="standard_car" departLane="random" departSpeed="10" />
    <trip id="20" depart="153.0" from="ce8" to="ce7" type="standard_car" departLane="random" departSpeed="10" />
    <trip id="21" depart="155.0" from="ce6" to="ce7" type="standard_car" departLane="random" departSpeed="10" />
    <trip id="22" depart="157.0" from="ce6" to="ce2" type="standard_car" departLane="random" departSpeed="10" />
    <trip id="23" depart="157.0" from="ce6" to="ce2" type="standard_car" departLane="random" departSpeed="10" />
    <trip id="24" depart="161.0" from="ce6" to="ce4" type="standard_car" departLane="random" departSpeed="10" />
    <trip id="25" depart="164.0" from="ce1" to="ce7" type="standard_car" departLane="random" departSpeed="10" />
    <trip id="26" depart="176.0" from="ce3" to="ce7" type="standard_car" departLane="random" departSpeed="10" />
    <trip id="27" depart="184.0" from="ce6" to="ce5" type="standard_car" departLane="random" departSpeed="10" />
    <trip id="28" depart="188.0" from="ce8" to="ce2" type="standard_car" departLane="random" departSpeed="10" />
    <trip id="29" depart="220.0" from="ce6" to="ce7" type="standard_car" departLane="random" departSpeed="10" />
    <trip id="30" depart="226.0" from="ce6" to="ce7" type="standard_car" departLane="random" departSpeed="10" />
    <trip id="31" depart="226.0" from="ce6" to="ce7" type="standard_car" departLane="random" departSpeed="10" />
    <trip id="32" depart="235.0" from="ce6" to="ce7" type="standard_car" departLane="random" departSpeed="10" />
    <trip id="33" depart="236.0" from="ce8" to="ce7" type="standard_car" departLane="random" departSpeed="10" />
    <trip id="34" depart="237.0" from="ce1" to="ce5" type="standard_car" departLane="random" departSpeed="10" />
    <trip id="35" depart="242.0" from="ce3" to="ce7" type="standard_car" departLane="random" departSpeed="10" />
    <trip id="36" depart="251.0" from="ce6" to="ce2" type="standard_car" departLane="random" departSpeed="10" />
    <trip id="37" depart="265.0" from="ce1" to="ce2" type="standard_car" departLane="random" departSpeed="10" />
    <trip id="38" depart="285.0" from="ce1" to="ce7" type="standard_car" departLane="random" departSpeed="10" />
    <trip id="39" depart="287.0" from="ce1" to="ce4" type="standard_car" departLane="random" departSpeed="10" />
    <trip id="40" depart="296.0" from="ce6" to="ce2" type="standard_car" departLane="random" departSpeed="10" />
    <trip id="41" depart="315.0" from="ce6" to="ce4" type="standard_car" departLane="random" departSpeed="10" />
    <trip id="42" depart="315.0" from="ce6" to="ce5" type="standard_car" departLane="random" departSpeed="10" />
    <trip id="43" depart="316.0" from="ce6" to="ce7" type="standard_car" departLane="random" departSpeed="10" />
    <trip id="44" depart="321.0" from="ce6" to="ce2" type="standard_car" departLane="random" departSpeed="10" />
    <trip id="45" depart="330.0" from="ce6" to="ce4" type="standard_car" departLane="random" departSpeed="10" />
    <trip id="46" depart="343.0" from="ce8" to="ce5" type="standard_car" departLane="random" departSpeed="10" />
    <trip id="47" depart="345.0" from="ce6" to="ce2" type="standard_car" departLane="random" departSpeed="10" />
    <trip id="48" depart="346.0" from="ce6" to="ce2" type="standard_car" departLane="random" departSpeed="10" />
    <trip id="49" depart="348.0" from="ce6" to="ce7" type="standard_car" departLane="random" departSpeed="10" />
    <trip id="50" depart="353.0" from="ce1" to="ce7" type="standard_car" departLane="random" departSpeed="10" />
    <trip id="51" depart="354.0" from="ce3" to="ce5" type="standard_car" departLane="random" departSpeed="10" />
    <trip id="52" depart="355.0" from="ce6" to="ce4" type="standard_car" departLane="random" departSpeed="10" />
    <trip id="53" depart="366.0" from="ce6" to="ce7" type="standard_car" departLane="random" departSpeed="10" />
    <trip id="54" depart="368.0" from="ce1" to="ce5" type="standard_car" departLane="random" departSpeed="10" />
    <trip id="55" depart="385.0" from="ce6" to="ce2" type="standard_car" departLane="random" departSpeed="10" />
    <trip id="56" depart="386.0" from="ce6" to="ce4" type="standard_car" departLane="random" departSpeed="10" />
    <trip id="57" depart="398.0" from="ce8" to="ce2" type="standard_car" departLane="random" departSpeed="10" />
    <trip id="58" depart="406.0" from="ce6" to="ce7" type="standard_car" departLane="random" departSpeed="10" />
    <trip id="59" depart="422.0" from="ce6" to="ce7" type="standard_car" departLane="random" departSpeed="10" />
    <trip id="60" depart="432.0" from="ce6" to="ce4" type="standard_car" departLane="random" departSpeed="10" />
    <trip id="61" depart="453.0" from="ce8" to="ce4" type="standard_car" departLane="random" departSpeed="10" />
    <trip id="62" depart="454.0" from="ce6" to="ce7" type="standard_car" departLane="random" departSpeed="10" />
    <trip id="63" depart="458.0" from="ce3" to="ce2" type="standard_car" departLane="random" departSpeed="10" />
    <trip id="64" depart="473.0" from="ce8" to="ce4" type="standard_car" departLane="random" departSpeed="10" />
    <trip id="65" depart="482.0" from="ce6" to="ce7" type="standard_car" departLane="random" departSpeed="10" />
    <trip id="66" depart="484.0" from="ce6" to="ce7" type="standard_car" departLane="random" departSpeed="10" />
    <trip id="67" depart="484.0" from="ce6" to="ce2" type="standard_car" departLane="random" departSpeed="10" />
    <trip id="68" depart="503.0" from="ce6" to="ce7" type="standard_car" departLane="random" departSpeed="10" />
    <trip id="69" depart="555.0" from="ce6" to="ce5" type="standard_car" departLane="random" departSpeed="10" />
    <trip id="70" depart="558.0" from="ce6" to="ce7" type="standard_car" departLane="random" departSpeed="10" />
    <trip id="71" depart="561.0" from="ce6" to="ce4" type="standard_car" departLane="random" departSpeed="10" />
    <trip id="72" depart="581.0" from="ce6" to="ce4" type="standard_car" departLane="random" departSpeed="10" />
    <trip id="73" depart="584.0" from="ce6" to="ce4" type="standard_car" departLane="random" departSpeed="10" />
    <trip id="74" depart="584.0" from="ce6" to="ce4" type="standard_car" departLane="random" departSpeed="10" />
    <trip id="75" depart="592.0" from="ce8" to="ce2" type="standard_car" departLane="random" departSpeed="10" />
    <trip id="76" depart="593.0" from="ce1" to="ce4" type="standard_car" departLane="random" departSpeed="10" />
    <trip id="77" depart="609.0" from="ce6" to="ce4" type="standard_car" departLane="random" departSpeed="10" />
    <trip id="78" depart="614.0" from="ce1" to="ce2" type="standard_car" departLane="random" departSpeed="10" />
    <trip id="79" depart="614.0" from="ce6" to="ce2" type="standard_car" departLane="random" departSpeed="10" />
    <trip id="80" depart="632.0" from="ce6" to="ce7" type="standard_car" departLane="random" departSpeed="10" />
    <trip id="81" depart="633.0" from="ce3" to="ce7" type="standard_car" departLane="random" departSpeed="10" />
    <trip id="82" depart="636.0" from="ce1" to="ce5" type="standard_car" departLane="random" departSpeed="10" />
    <trip id="83" depart="642.0" from="ce6" to="ce2" type="standard_car" departLane="random" departSpeed="10" />
    <trip id="84" depart="652.0" from="ce6" to="ce5" type="standard_car" departLane="random" departSpeed="10" />
    <trip id="85" depart="664.0" from="ce6" to="ce2" type="standard_car" departLane="random" departSpeed="10" />
    <trip id="86" depart="667.0" from="ce6" to="ce2" type="standard_car" departLane="random" departSpeed="10" />
    <trip id="87" depart="667.0" from="ce3" to="ce5" type="standard_car" departLane="random" departSpeed="10" />
    <trip id="88" depart="672.0" from="ce6" to="ce2" type="standard_car" departLane="random" departSpeed="10" />
    <trip id="89" depart="674.0" from="ce6" to="ce7" type="standard_car" departLane="random" departSpeed="10" />
    <trip id="90" depart="701.0" from="ce6" to="ce2" type="standard_car" departLane="random" departSpeed="10" />
    <trip id="91" depart="709.0" from="ce6" to="ce4" type="standard_car" departLane="random" departSpeed="10" />
    <trip id="92" depart="713.0" from="ce3" to="ce2" type="standard_car" departLane="random" departSpeed="10" />
    <trip id="93" depart="716.0" from="ce8" to="ce4" type="standard_car" departLane="random" departSpeed="10" />
    <trip id="94" depart="723.0" from="ce8" to="ce2" type="standard_car" departLane="random" departSpeed="10" />
    <trip id="95" depart="726.0" from="ce6" to="ce7" type="standard_car" departLane="random" departSpeed="10" />
    <trip id="96" depart="730.0" from="ce6" to="ce7" type="standard_car" departLane="random" departSpeed="10" />
    <trip id="97" depart="737.0" from="ce6" to="ce7" type="standard_car" departLane="random" departSpeed="10" />
    <trip id="98" depart="741.0" from="ce8" to="ce7" type="standard_car" departLane="random" departSpeed="10" />
    <trip id="99" depart="742.0" from="ce6" to="ce4" type="standard_car" departLane="random" departSpeed="10" />
    <trip id="100" depart="745.0" from="ce3" to="ce4" type="standard_car" departLane="random" departSpeed="10" />
    <trip id="101" depart="749.0" from="ce6" to="ce4" type="standard_car" departLane="random" departSpeed="10" />
    <trip id="102" depart="751.0" from="ce6" to="ce7" type="standard_car" departLane="random" departSpeed="10" />
    <trip id="103" depart="762.0" from="ce8" to="ce4" type="standard_car" departLane="random" departSpeed="10" />
    <trip id="104" depart="773.0" from="ce6" to="ce4" type="standard_car" departLane="random" departSpeed="10" />
    <trip id="105" depart="774.0" from="ce6" to="ce4" type="standard_car" departLane="random" departSpeed="10" />
    <trip id="106" depart="783.0" from="ce6" to="ce4" type="standard_car" departLane="random" departSpeed="10" />
    <trip id="107" depart="788.0" from="ce1" to="ce7" type="standard_car" departLane="random" departSpeed="10" />
    <trip id="108" depart="793.0" from="ce6" to="ce2" type="standard_car" departLane="random" departSpeed="10" />
    <trip id="109" depart="793.0" from="ce6" to="ce7" type="standard_car" departLane="random" departSpeed="10" />
    <trip id="110" depart="793.0" from="ce1" to="ce5" type="standard_car" departLane="random" departSpeed="10" />
    <trip id="111" depart="795.0" from="ce6" to="ce2" type="standard_car" departLane="random" departSpeed="10" />
    <trip id="112" depart="795.0" from="ce6" to="ce4" type="standard_car" departLane="random" departSpeed="10" />
    <trip id="113" depart="806.0" from="ce6" to="ce7" type="standard_car" departLane="random" departSpeed="10" />
    <trip id="114" depart="814.0" from="ce6" to="ce4" type="standard_car" departLane="random" departSpeed="10" />
    <trip id="115" depart="823.0" from="ce8" to="ce2" type="standard_car" departLane="random" departSpeed="10" />
    <trip id="116" depart="826.0" from="ce1" to="ce5" type="standard_car" departLane="random" departSpeed="10" />
    <trip id="117" depart="836.0" from="ce6" to="ce2" type="standard_car" departLane="random" departSpeed="10" />
    <trip id="118" depart="882.0" from="ce6" to="ce4" type="standard_car" departLane="random" departSpeed="10" />
    <trip id="119" depart="885.0" from="ce1" to="ce4" type="standard_car" departLane="random" departSpeed="10" />
    <trip id="120" depart="887.0" from="ce6" to="ce7" type="standard_car" departLane="random" departSpeed="10" />
    <trip id="121" depart="890.0" from="ce6" to="ce2" type="standard_car" departLane="random" departSpeed="10" />
    <trip id="122" depart="891.0" from="ce3" to="ce2" type="standard_car" departLane="random" departSpeed="10" />
    <trip id="123" depart="895.0" from="ce6" to="ce7" type="standard_car" departLane="random" departSpeed="10" />
    <trip id="124" depart="905.0" from="ce6" to="ce4" type="standard_car" departLane="random" departSpeed="10" />
    <trip id="125" depart="913.0" from="ce6" to="ce4" type="standard_car" departLane="random" departSpeed="10" />
    <trip id="126" depart="915.0" from="ce6" to="ce2" type="standard_car" departLane="random" departSpeed="10" />
    <trip id="127" depart="934.0" from="ce6" to="ce7" type="standard_car" departLane="random" departSpeed="10" />
    <trip id="128" depart="935.0" from="ce3" to="ce5" type="standard_car" departLane="random" departSpeed="10" />
    <trip id="129" depart="939.0" from="ce6" to="ce2" type="standard_car" departLane="random" departSpeed="10" />
    <trip id="130" depart="950.0" from="ce6" to="ce2" type="standard_car" departLane="random" departSpeed="10" />
    <trip id="131" depart="956.0" from="ce6" to="ce4" type="standard_car" departLane="random" departSpeed="10" />
    <trip id="132" depart="960.0" from="ce6" to="ce2" type="standard_car" departLane="random" departSpeed="10" />
    <trip id="133" depart="961.0" from="ce6" to="ce2" type="standard_car" departLane="random" departSpeed="10" />
    <trip id="134" depart="970.0" from="ce1" to="ce5" type="standard_car" departLane="random" departSpeed="10" />
    <trip id="135" depart="987.0" from="ce6" to="ce4" type="standard_car" departLane="random" departSpeed="10" />
    <trip id="136" depart="1009.0" from="ce6" to="ce2" type="standard_car" departLane="random" departSpeed="10" />
    <trip id="137" depart="1020.0" from="ce6" to="ce2" type="standard_car" departLane="random" departSpeed="10" />
    <trip id="138" depart="1022.0" from="ce6" to="ce7" type="standard_car" departLane="random" departSpeed="10" />
    <trip id="139" depart="1028.0" from="ce6" to="ce4" type="standard_car" departLane="random" departSpeed="10" />
    <trip id="140" depart="1035.0" from="ce6" to="ce4" type="standard_car" departLane="random" departSpeed="10" />
    <trip id="141" depart="1043.0" from="ce3" to="ce4" type="standard_car" departLane="random" departSpeed="10" />
    <trip id="142" depart="1046.0" from="ce6" to="ce2" type="standard_car" departLane="random" departSpeed="10" />
    <trip id="143" depart="1049.0" from="ce6" to="ce5" type="standard_car" departLane="random" departSpeed="10" />
    <trip id="144" depart="1055.0" from="ce6" to="ce4" type="standard_car" departLane="random" departSpeed="10" />
    <trip id="145" depart="1063.0" from="ce6" to="ce2" type="standard_car" departLane="random" departSpeed="10" />
    <trip id="146" depart="1067.0" from="ce6" to="ce7" type="standard_car" departLane="random" departSpeed="10" />
    <trip id="147" depart="1079.0" from="ce6" to="ce4" type="standard_car" departLane="random" departSpeed="10" />
    <trip id="148" depart="1082.0" from="ce8" to="ce5" type="standard_car" departLane="random" departSpeed="10" />
    <trip id="149" depart="1083.0" from="ce6" to="ce4" type="standard_car" departLane="random" departSpeed="10" />
    <trip id="150" depart="1103.0" from="ce3" to="ce2" type="standard_car" departLane="random" departSpeed="10" />
    <trip id="151" depart="1111.0" from="ce6" to="ce2" type="standard_car" departLane="random" departSpeed="10" />
    <trip id="152" depart="1122.0" from="ce6" to="ce4" type="standard_car" departLane="random" departSpeed="10" />
    <trip id="153" depart="1128.0" from="ce6" to="ce2" type="standard_car" departLane="random" departSpeed="10" />
    <trip id="154" depart="1142.0" from="ce6" to="ce5" type="standard_car" departLane="random" departSpeed="10" />
    <trip id="155" depart="1144.0" from="ce1" to="ce7" type="standard_car" departLane="random" departSpeed="10" />
    <trip id="156" depart="1165.0" from="ce6" to="ce4" type="standard_car" departLane="random" departSpeed="10" />
    <trip id="157" depart="1165.0" from="ce6" to="ce7" type="standard_car" departLane="random" departSpeed="10" />
    <trip id="158" depart="1166.0" from="ce3" to="ce7" type="standard_car" departLane="random" departSpeed="10" />
    <trip id="159" depart="1170.0" from="ce3" to="ce2" type="standard_car" departLane="random" departSpeed="10" />
    <trip id="160" depart="1176.0" from="ce3" to="ce7" type="standard_car" departLane="random" departSpeed="10" />
    <trip id="161" depart="1179.0" from="ce8" to="ce7" type="standard_car" departLane="random" departSpeed="10" />
    <trip id="162" depart="1189.0" from="ce6" to="ce7" type="standard_car" departLane="random" departSpeed="10" />
    <trip id="163" depart="1191.0" from="ce6" to="ce7" type="standard_car" departLane="random" departSpeed="10" />
    <trip id="164" depart="1195.0" from="ce6" to="ce2" type="standard_car" departLane="random" departSpeed="10" />
    <trip id="165" depart="1198.0" from="ce8" to="ce4" type="standard_car" departLane="random" departSpeed="10" />
    <trip id="166" depart="1215.0" from="ce6" to="ce7" type="standard_car" departLane="random" departSpeed="10" />
    <trip id="167" depart="1216.0" from="ce6" to="ce7" type="standard_car" departLane="random" departSpeed="10" />
    <trip id="168" depart="1228.0" from="ce6" to="ce2" type="standard_car" departLane="random" departSpeed="10" />
    <trip id="169" depart="1230.0" from="ce3" to="ce7" type="standard_car" departLane="random" departSpeed="10" />
    <trip id="170" depart="1242.0" from="ce6" to="ce4" type="standard_car" departLane="random" departSpeed="10" />
    <trip id="171" depart="1246.0" from="ce6" to="ce2" type="standard_car" departLane="random" departSpeed="10" />
    <trip id="172" depart="1248.0" from="ce6" to="ce7" type="standard_car" departLane="random" departSpeed="10" />
    <trip id="173" depart="1256.0" from="ce3" to="ce2" type="standard_car" departLane="random" departSpeed="10" />
    <trip id="174" depart="1259.0" from="ce6" to="ce4" type="standard_car" departLane="random" departSpeed="10" />
    <trip id="175" depart="1263.0" from="ce6" to="ce2" type="standard_car" departLane="random" departSpeed="10" />
    <trip id="176" depart="1272.0" from="ce6" to="ce7" type="standard_car" departLane="random" departSpeed="10" />
    <trip id="177" depart="1284.0" from="ce3" to="ce7" type="standard_car" departLane="random" departSpeed="10" />
    <trip id="178" depart="1286.0" from="ce6" to="ce4" type="standard_car" departLane="random" departSpeed="10" />
    <trip id="179" depart="1287.0" from="ce6" to="ce2" type="standard_car" departLane="random" departSpeed="10" />
    <trip id="180" depart="1316.0" from="ce3" to="ce7" type="standard_car" departLane="random" departSpeed="10" />
    <trip id="181" depart="1319.0" from="ce6" to="ce7" type="standard_car" departLane="random" departSpeed="10" />
    <trip id="182" depart="1326.0" from="ce8" to="ce5" type="standard_car" departLane="random" departSpeed="10" />
    <trip id="183" depart="1336.0" from="ce8" to="ce5" type="standard_car" departLane="random" departSpeed="10" />
    <trip id="184" depart="1337.0" from="ce8" to="ce5" type="standard_car" departLane="random" departSpeed="10" />
    <trip id="185" depart="1341.0" from="ce6" to="ce4" type="standard_car" departLane="random" departSpeed="10" />
    <trip id="186" depart="1342.0" from="ce6" to="ce2" type="standard_car" departLane="random" departSpeed="10" />
    <trip id="187" depart="1342.0" from="ce6" to="ce2" type="standard_car" departLane="random" departSpeed="10" />
    <trip id="188" depart="1351.0" from="ce6" to="ce2" type="standard_car" departLane="random" departSpeed="10" />
    <trip id="189" depart="1361.0" from="ce6" to="ce7" type="standard_car" departLane="random" departSpeed="10" />
    <trip id="190" depart="1365.0" from="ce6" to="ce7" type="standard_car" departLane="random" departSpeed="10" />
    <trip id="191" depart="1371.0" from="ce6" to="ce2" type="standard_car" departLane="random" departSpeed="10" />
    <trip id="192" depart="1386.0" from="ce6" to="ce2" type="standard_car" departLane="random" departSpeed="10" />
    <trip id="193" depart="1391.0" from="ce6" to="ce2" type="standard_car" departLane="random" departSpeed="10" />
    <trip id="194" depart="1393.0" from="ce6" to="ce4" type="standard_car" departLane="random" departSpeed="10" />
    <trip id="195" depart="1393.0" from="ce1" to="ce7" type="standard_car" departLane="random" departSpeed="10" />
    <trip id="196" depart="1393.0" from="ce1" to="ce4" type="standard_car" departLane="random" departSpeed="10" />
    <trip id="197" depart="1393.0" from="ce8" to="ce4" type="standard_car" departLane="random" departSpeed="10" />
    <trip id="198" depart="1395.0" from="ce6" to="ce4" type="standard_car" departLane="random" departSpeed="10" />
    <trip id="199" depart="1396.0" from="ce8" to="ce4" type="standard_car" departLane="random" departSpeed="10" />
    <trip id="200" depart="1398.0" from="ce6" to="ce4" type="standard_car" departLane="random" departSpeed="10" />
    <trip id="201" depart="1423.0" from="ce6" to="ce4" type="standard_car" departLane="random" departSpeed="10" />
    <trip id="202" depart="1449.0" from="ce1" to="ce5" type="standard_car" departLane="random" departSpeed="10" />
    <trip id="203" depart="1463.0" from="ce8" to="ce5" type="standard_car" departLane="random" departSpeed="10" />
    <trip id="204" depart="1492.0" from="ce3" to="ce5" type="standard_car" departLane="random" departSpeed="10" />
    <trip id="205" depart="1492.0" from="ce6" to="ce4" type="standard_car" departLane="random" departSpeed="10" />
    <trip id="206" depart="1493.0" from="ce6" to="ce7" type="standard_car" departLane="random" departSpeed="10" />
    <trip id="207" depart="1494.0" from="ce6" to="ce2" type="standard_car" departLane="random" departSpeed="10" />
    <trip id="208" depart="1500.0" from="ce6" to="ce4" type="standard_car" departLane="random" departSpeed="10" />
    <trip id="209" depart="1504.0" from="ce3" to="ce7" type="standard_car" departLane="random" departSpeed="10" />
    <trip id="210" depart="1511.0" from="ce6" to="ce7" type="standard_car" departLane="random" departSpeed="10" />
    <trip id="211" depart="1513.0" from="ce6" to="ce7" type="standard_car" departLane="random" departSpeed="10" />
    <trip id="212" depart="1531.0" from="ce6" to="ce5" type="standard_car" departLane="random" departSpeed="10" />
    <trip id="213" depart="1539.0" from="ce8" to="ce5" type="standard_car" departLane="random" departSpeed="10" />
    <trip id="214" depart="1541.0" from="ce6" to="ce7" type="standard_car" departLane="random" departSpeed="10" />
    <trip id="215" depart="1543.0" from="ce6" to="ce2" type="standard_car" departLane="random" departSpeed="10" />
    <trip id="216" depart="1547.0" from="ce6" to="ce4" type="standard_car" departLane="random" departSpeed="10" />
    <trip id="217" depart="1557.0" from="ce8" to="ce4" type="standard_car" departLane="random" departSpeed="10" />
    <trip id="218" depart="1563.0" from="ce8" to="ce7" type="standard_car" departLane="random" departSpeed="10" />
    <trip id="219" depart="1566.0" from="ce6" to="ce7" type="standard_car" departLane="random" departSpeed="10" />
    <trip id="220" depart="1566.0" from="ce6" to="ce4" type="standard_car" departLane="random" departSpeed="10" />
    <trip id="221" depart="1566.0" from="ce6" to="ce7" type="standard_car" departLane="random" departSpeed="10" />
    <trip id="222" depart="1567.0" from="ce1" to="ce5" type="standard_car" departLane="random" departSpeed="10" />
    <trip id="223" depart="1570.0" from="ce6" to="ce7" type="standard_car" departLane="random" departSpeed="10" />
    <trip id="224" depart="1572.0" from="ce6" to="ce4" type="standard_car" departLane="random" departSpeed="10" />
    <trip id="225" depart="1572.0" from="ce6" to="ce2" type="standard_car" departLane="random" departSpeed="10" />
    <trip id="226" depart="1589.0" from="ce8" to="ce4" type="standard_car" departLane="random" departSpeed="10" />
    <trip id="227" depart="1600.0" from="ce6" to="ce2" type="standard_car" departLane="random" departSpeed="10" />
    <trip id="228" depart="1600.0" from="ce6" to="ce4" type="standard_car" departLane="random" departSpeed="10" />
    <trip id="229" depart="1607.0" from="ce6" to="ce7" type="standard_car" departLane="random" departSpeed="10" />
    <trip id="230" depart="1613.0" from="ce6" to="ce2" type="standard_car" departLane="random" departSpeed="10" />
    <trip id="231" depart="1619.0" from="ce8" to="ce5" type="standard_car" departLane="random" departSpeed="10" />
    <trip id="232" depart="1621.0" from="ce6" to="ce7" type="standard_car" departLane="random" departSpeed="10" />
    <trip id="233" depart="1630.0" from="ce6" to="ce2" type="standard_car" departLane="random" departSpeed="10" />
    <trip id="234" depart="1662.0" from="ce3" to="ce2" type="standard_car" departLane="random" departSpeed="10" />
    <trip id="235" depart="1668.0" from="ce6" to="ce4" type="standard_car" departLane="random" departSpeed="10" />
    <trip id="236" depart="1671.0" from="ce8" to="ce4" type="standard_car" departLane="random" departSpeed="10" />
    <trip id="237" depart="1684.0" from="ce8" to="ce2" type="standard_car" departLane="random" departSpeed="10" />
    <trip id="238" depart="1697.0" from="ce6" to="ce5" type="standard_car" departLane="random" departSpeed="10" />
    <trip id="239" depart="1700.0" from="ce3" to="ce2" type="standard_car" departLane="random" departSpeed="10" />
    <trip id="240" depart="1714.0" from="ce6" to="ce4" type="standard_car" departLane="random" departSpeed="10" />
    <trip id="241" depart="1720.0" from="ce6" to="ce7" type="standard_car" departLane="random" departSpeed="10" />
    <trip id="242" depart="1733.0" from="ce8" to="ce2" type="standard_car" departLane="random" departSpeed="10" />
    <trip id="243" depart="1739.0" from="ce8" to="ce7" type="standard_car" departLane="random" departSpeed="10" />
    <trip id="244" depart="1743.0" from="ce6" to="ce4" type="standard_car" departLane="random" departSpeed="10" />
    <trip id="245" depart="1761.0" from="ce6" to="ce2" type="standard_car" departLane="random" departSpeed="10" />
    <trip id="246" depart="1761.0" from="ce6" to="ce4" type="standard_car" departLane="random" departSpeed="10" />
    <trip id="247" depart="1772.0" from="ce6" to="ce7" type="standard_car" departLane="random" departSpeed="10" />
    <trip id="248" depart="1779.0" from="ce6" to="ce2" type="standard_car" departLane="random" departSpeed="10" />
    <trip id="249" depart="1783.0" from="ce1" to="ce5" type="standard_car" departLane="random" departSpeed="10" />
    <trip id="250" depart="1788.0" from="ce8" to="ce4" type="standard_car" departLane="random" departSpeed="10" />
    <trip id="251" depart="1789.0" from="ce3" to="ce5" type="standard_car" departLane="random" departSpeed="10" />
    <trip id="252" depart="1800.0" from="ce6" to="ce4" type="standard_car" departLane="random" departSpeed="10" />
    <trip id="253" depart="1804.0" from="ce6" to="ce4" type="standard_car" departLane="random" departSpeed="10" />
    <trip id="254" depart="1810.0" from="ce6" to="ce4" type="standard_car" departLane="random" departSpeed="10" />
    <trip id="255" depart="1811.0" from="ce6" to="ce7" type="standard_car" departLane="random" departSpeed="10" />
    <trip id="256" depart="1814.0" from="ce6" to="ce4" type="standard_car" departLane="random" departSpeed="10" />
    <trip id="257" depart="1818.0" from="ce1" to="ce4" type="standard_car" departLane="random" departSpeed="10" />
    <trip id="258" depart="1819.0" from="ce6" to="ce2" type="standard_car" departLane="random" departSpeed="10" />
    <trip id="259" depart="1819.0" from="ce6" to="ce2" type="standard_car" departLane="random" departSpeed="10" />
    <trip id="260" depart="1822.0" from="ce6" to="ce4" type="standard_car" departLane="random" departSpeed="10" />