<routes>
             <vType accel="1.0" decel="4.5" id="standard_car" length="5.0" minGap="2.5" maxSpeed="25" sigma="0.5" />
                    
    <trip id="0" depart="13.0" from="ce6" to="ce2" type="standard_car" departLane="random" departSpeed="10" />
    <trip id="1" depart="15.0" from="ce6" to="ce4" type="standard_car" departLane="random" departSpeed="10" />
    <trip id="2" depart="19.0" from="ce6" to="ce7" type="standard_car" departLane="random" departSpeed="10" />
    <trip id="3" depart="21.0" from="ce3" to="ce7" type="standard_car" departLane="random" departSpeed="10" />
    <trip id="4" depart="51.0" from="ce8" to="ce4" type="standard_car" departLane="random" departSpeed="10" />
    <trip id="5" depart="66.0" from="ce6" to="ce5" type="standard_car" departLane="random" departSpeed="10" />
    <trip id="6" depart="83.0" from="ce3" to="ce5" type="standard_car" departLane="random" departSpeed="10" />
    <trip id="7" depart="86.0" from="ce6" to="ce7" type="standard_car" departLane="random" departSpeed="10" />
    <trip id="8" depart="100.0" from="ce3" to="ce5" type="standard_car" departLane="random" departSpeed="10" />
    <trip id="9" depart="121.0" from="ce6" to="ce4" type="standard_car" departLane="random" departSpeed="10" />
    <trip id="10" depart="122.0" from="ce3" to="ce4" type="standard_car" departLane="random" departSpeed="10" />
    <trip id="11" depart="129.0" from="ce8" to="ce2" type="standard_car" departLane="random" departSpeed="10" />
    <trip id="12" depart="131.0" from="ce6" to="ce7" type="standard_car" departLane="random" departSpeed="10" />
    <trip id="13" depart="132.0" from="ce6" to="ce7" type="standard_car" departLane="random" departSpeed="10" />
    <trip id="14" depart="138.0" from="ce6" to="ce7" type="standard_car" departLane="random" departSpeed="10" />
    <trip id="15" depart="149.0" from="ce6" to="ce2" type="standard_car" departLane="random" departSpeed="10" />
    <trip id="16" depart="166.0" from="ce6" to="ce4" type="standard_car" departLane="random" departSpeed="10" />
    <trip id="17" depart="181.0" from="ce6" to="ce2" type="standard_car" departLane="random" departSpeed="10" />
    <trip id="18" depart="186.0" from="ce6" to="ce7" type="standard_car" departLane="random" departSpeed="10" />
    <trip id="19" depart="195.0" from="ce6" to="ce7" type="standard_car" departLane="random" departSpeed="10" />
    <trip id="20" depart="198.0" from="ce3" to="ce7" type="standard_car" departLane="random" departSpeed="10" />
    <trip id="21" depart="207.0" from="ce3" to="ce7" type="standard_car" departLane="random" departSpeed="10" />
    <trip id="22" depart="222.0" from="ce6" to="ce7" type="standard_car" departLane="random" departSpeed="10" />
    <trip id="23" depart="230.0" from="ce3" to="ce4" type="standard_car" departLane="random" departSpeed="10" />
    <trip id="24" depart="243.0" from="ce6" to="ce7" type="standard_car" departLane="random" departSpeed="10" />
    <trip id="25" depart="245.0" from="ce6" to="ce4" type="standard_car" departLane="random" departSpeed="10" />
    <trip id="26" depart="253.0" from="ce6" to="ce4" type="standard_car" departLane="random" departSpeed="10" />
    <trip id="27" depart="263.0" from="ce1" to="ce4" type="standard_car" departLane="random" departSpeed="10" />
    <trip id="28" depart="265.0" from="ce3" to="ce5" type="standard_car" departLane="random" departSpeed="10" />
    <trip id="29" depart="268.0" from="ce3" to="ce2" type="standard_car" departLane="random" departSpeed="10" />
    <trip id="30" depart="275.0" from="ce6" to="ce7" type="standard_car" departLane="random" departSpeed="10" />
    <trip id="31" depart="281.0" from="ce6" to="ce4" type="standard_car" departLane="random" departSpeed="10" />
    <trip id="32" depart="281.0" from="ce6" to="ce4" type="standard_car" departLane="random" departSpeed="10" />
    <trip id="33" depart="287.0" from="ce6" to="ce4" type="standard_car" departLane="random" departSpeed="10" />
    <trip id="34" depart="298.0" from="ce1" to="ce5" type="standard_car" departLane="random" departSpeed="10" />
    <trip id="35" depart="306.0" from="ce6" to="ce2" type="standard_car" departLane="random" departSpeed="10" />
    <trip id="36" depart="315.0" from="ce3" to="ce7" type="standard_car" departLane="random" departSpeed="10" />
    <trip id="37" depart="319.0" from="ce6" to="ce4" type="standard_car" departLane="random" departSpeed="10" />
    <trip id="38" depart="324.0" from="ce1" to="ce2" type="standard_car" departLane="random" departSpeed="10" />
    <trip id="39" depart="329.0" from="ce6" to="ce7" type="standard_car" departLane="random" departSpeed="10" />
    <trip id="40" depart="332.0" from="ce6" to="ce2" type="standard_car" departLane="random" departSpeed="10" />
    <trip id="41" depart="341.0" from="ce3" to="ce7" type="standard_car" departLane="random" departSpeed="10" />
    <trip id="42" depart="371.0" from="ce3" to="ce7" type="standard_car" departLane="random" departSpeed="10" />
    <trip id="43" depart="378.0" from="ce6" to="ce7" type="standard_car" departLane="random" departSpeed="10" />
    <trip id="44" depart="380.0" from="ce3" to="ce5" type="standard_car" departLane="random" departSpeed="10" />
    <trip id="45" depart="388.0" from="ce3" to="ce5" type="standard_car" departLane="random" departSpeed="10" />
    <trip id="46" depart="401.0" from="ce6" to="ce4" type="standard_car" departLane="random" departSpeed="10" />
    <trip id="47" depart="404.0" from="ce3" to="ce5" type="standard_car" departLane="random" departSpeed="10" />
    <trip id="48" depart="407.0" from="ce3" to="ce7" type="standard_car" departLane="random" departSpeed="10" />
    <trip id="49" depart="413.0" from="ce6" to="ce5" type="standard_car" departLane="random" departSpeed="10" />
    <trip id="50" depart="415.0" from="ce6" to="ce2" type="standard_car" departLane="random" departSpeed="10" />
    <trip id="51" depart="415.0" from="ce3" to="ce2" type="standard_car" departLane="random" departSpeed="10" />
    <trip id="52" depart="421.0" from="ce6" to="ce7" type="standard_car" departLane="random" departSpeed="10" />
    <trip id="53" depart="422.0" from="ce1" to="ce4" type="standard_car" departLane="random" departSpeed="10" />
    <trip id="54" depart="422.0" from="ce1" to="ce2" type="standard_car" departLane="random" departSpeed="10" />
    <trip id="55" depart="433.0" from="ce6" to="ce2" type="standard_car" departLane="random" departSpeed="10" />
    <trip id="56" depart="439.0" from="ce6" to="ce7" type="standard_car" departLane="random" departSpeed="10" />
    <trip id="57" depart="442.0" from="ce6" to="ce2" type="standard_car" departLane="random" departSpeed="10" />
    <trip id="58" depart="447.0" from="ce6" to="ce5" type="standard_car" departLane="random" departSpeed="10" />
    <trip id="59" depart="447.0" from="ce6" to="ce7" type="standard_car" departLane="random" departSpeed="10" />
    <trip id="60" depart="456.0" from="ce6" to="ce7" type="standard_car" departLane="random" departSpeed="10" />
    <trip id="61" depart="459.0" from="ce6" to="ce7" type="standard_car" departLane="random" departSpeed="10" />
    <trip id="62" depart="479.0" from="ce6" to="ce5" type="standard_car" departLane="random" departSpeed="10" />
    <trip id="63" depart="481.0" from="ce6" to="ce7" type="standard_car" departLane="random" departSpeed="10" />
    <trip id="64" depart="485.0" from="ce6" to="ce4" type="standard_car" departLane="random" departSpeed="10" />
    <trip id="65" depart="487.0" from="ce6" to="ce2" type="standard_car" departLane="random" departSpeed="10" />
    <trip id="66" depart="490.0" from="ce1" to="ce7" type="standard_car" departLane="random" departSpeed="10" />
    <trip id="67" depart="522.0" from="ce6" to="ce4" type="standard_car" departLane="random" departSpeed="10" />
    <trip id="68" depart="526.0" from="ce6" to="ce2" type="standard_car" departLane="random" departSpeed="10" />
    <trip id="69" depart="534.0" from="ce6" to="ce2" type="standard_car" departLane="random" departSpeed="10" />
    <trip id="70" depart="549.0" from="ce6" to="ce4" type="standard_car" departLane="random" departSpeed="10" />
    <trip id="71" depart="560.0" from="ce6" to="ce7" type="standard_car" departLane="random" departSpeed="10" />
    <trip id="72" depart="562.0" from="ce3" to="ce2" type="standard_car" departLane="random" departSpeed="10" />
    <trip id="73" depart="573.0" from="ce6" to="ce4" type="standard_car" departLane="random" departSpeed="10" />
    <trip id="74" depart="573.0" from="ce6" to="ce4" type="standard_car" departLane="random" departSpeed="10" />
    <trip id="75" depart="578.0" from="ce6" to="ce7" type="standard_car" departLane="random" departSpeed="10" />
    <trip id="76" depart="593.0" from="ce1" to="ce4" type="standard_car" departLane="random" departSpeed="10" />
    <trip id="77" depart="599.0" from="ce6" to="ce7" type="standard_car" departLane="random" departSpeed="10" />
    <trip id="78" depart="600.0" from="ce6" to="ce5" type="standard_car" departLane="random" departSpeed="10" />
    <trip id="79" depart="601.0" from="ce6" to="ce2" type="standard_car" departLane="random" departSpeed="10" />
    <trip id="80" depart="613.0" from="ce3" to="ce7" type="standard_car" departLane="random" departSpeed="10" />
    <trip id="81" depart="623.0" from="ce6" to="ce4" type="standard_car" departLane="random" departSpeed="10" />
    <trip id="82" depart="626.0" from="ce6" to="ce2" type="standard_car" departLane="random" departSpeed="10" />
    <trip id="83" depart="640.0" from="ce6" to="ce2" type="standard_car" departLane="random" departSpeed="10" />
    <trip id="84" depart="659.0" from="ce6" to="ce4" type="standard_car" departLane="random" departSpeed="10" />
    <trip id="85" depart="666.0" from="ce6" to="ce7" type="standard_car" departLane="random" departSpeed="10" />
    <trip id="86" depart="679.0" from="ce6" to="ce7" type="standard_car" departLane="random" departSpeed="10" />
    <trip id="87" depart="692.0" from="ce1" to="ce7" type="standard_car" departLane="random" departSpeed="10" />
    <trip id="88" depart="699.0" from="ce6" to="ce5" type="standard_car" departLane="random" departSpeed="10" />
    <trip id="89" depart="701.0" from="ce6" to="ce7" type="standard_car" departLane="random" departSpeed="10" />
    <trip id="90" depart="702.0" from="ce3" to="ce7" type="standard_car" departLane="random" departSpeed="10" />
    <trip id="91" depart="703.0" from="ce6" to="ce4" type="standard_car" departLane="random" departSpeed="10" />
    <trip id="92" depart="706.0" from="ce6" to="ce2" type="standard_car" departLane="random" departSpeed="10" />
    <trip id="93" depart="708.0" from="ce6" to="ce2" type="standard_car" departLane="random" departSpeed="10" />
    <trip id="94" depart="714.0" from="ce3" to="ce7" type="standard_car" departLane="random" departSpeed="10" />
    <trip id="95" depart="732.0" from="ce3" to="ce4" type="standard_car" departLane="random" departSpeed="10" />
    <trip id="96" depart="742.0" from="ce6" to="ce2" type="standard_car" departLane="random" departSpeed="10" />
    <trip id="97" depart="751.0" from="ce6" to="ce2" type="standard_car" departLane="random" departSpeed="10" />
    <trip id="98" depart="757.0" from="ce6" to="ce7" type="standard_car" departLane="random" departSpeed="10" />
    <trip id="99" depart="758.0" from="ce1" to="ce4" type="standard_car" departLane="random" departSpeed="10" />
    <trip id="100" depart="772.0" from="ce6" to="ce2" type="standard_car" departLane="random" departSpeed="10" />
    <trip id="101" depart="776.0" from="ce6" to="ce7" type="standard_car" departLane="random" departSpeed="10" />
    <trip id="102" depart="786.0" from="ce6" to="ce2" type="standard_car" departLane="random" departSpeed="10" />
    <trip id="103" depart="788.0" from="ce6" to="ce2" type="standard_car" departLane="random" departSpeed="10" />
    <trip id="104" depart="789.0" from="ce6" to="ce4" type="standard_car" departLane="random" departSpeed="10" />
    <trip id="105" depart="791.0" from="ce3" to="ce4" type="standard_car" departLane="random" departSpeed="10" />
    <trip id="106" depart="797.0" from="ce1" to="ce7" type="standard_car" departLane="random" departSpeed="10" />
    <trip id="107" depart="805.0" from="ce6" to="ce2" type="standard_car" departLane="random" departSpeed="10" />
    <trip id="108" depart="816.0" from="ce6" to="ce4" type="standard_car" departLane="random" departSpeed="10" />
    <trip id="109" depart="833.0" from="ce6" to="ce4" type="standard_car" departLane="random" departSpeed="10" />
    <trip id="110" depart="833.0" from="ce6" to="ce4" type="standard_car" departLane="random" departSpeed="10" />
    <trip id="111" depart="836.0" from="ce3" to="ce2" type="standard_car" departLane="random" departSpeed="10" />
    <trip id="112" depart="840.0" from="ce6" to="ce2" type="standard_car" departLane="random" departSpeed="10" />
    <trip id="113" depart="847.0" from="ce6" to="ce5" type="standard_car" departLane="random" departSpeed="10" />
    <trip id="114" depart="851.0" from="ce6" to="ce2" type="standard_car" departLane="random" departSpeed="10" />
    <trip id="115" depart="875.0" from="ce6" to="ce7" type="standard_car" departLane="random" departSpeed="10" />
    <trip id="116" depart="878.0" from="ce3" to="ce5" type="standard_car" departLane="random" departSpeed="10" />
    <trip id="117" depart="880.0" from="ce6" to="ce2" type="standard_car" departLane="random" departSpeed="10" />
    <trip id="118" depart="892.0" from="ce6" to="ce4" type="standard_car" departLane="random" departSpeed="10" />
    <trip id="119" depart="910.0" from="ce3" to="ce5" type="standard_car" departLane="random" departSpeed="10" />
    <trip id="120" depart="913.0" from="ce6" to="ce5" type="standard_car" departLane="random" departSpeed="10" />
    <trip id="121" depart="920.0" from="ce6" to="ce7" type="standard_car" departLane="random" departSpeed="10" />
    <trip id="122" depart="923.0" from="ce6" to="ce2" type="standard_car" departLane="random" departSpeed="10" />
    <trip id="123" depart="933.0" from="ce6" to="ce4" type="standard_car" departLane="random" departSpeed="10" />
    <trip id="124" depart="933.0" from="ce6" to="ce4" type="standard_car" departLane="random" departSpeed="10" />
    <trip id="125" depart="943.0" from="ce6" to="ce4" type="standard_car" departLane="random" departSpeed="10" />
    <trip id="126" depart="953.0" from="ce8" to="ce5" type="standard_car" departLane="random" departSpeed="10" />
    <trip id="127" depart="956.0" from="ce6" to="ce4" type="standard_car" departLane="random" departSpeed="10" />
    <trip id="128" depart="960.0" from="ce3" to="ce5" type="standard_car" departLane="random" departSpeed="10" />
    <trip id="129" depart="962.0" from="ce8" to="ce5" type="standard_car" departLane="random" departSpeed="10" />
    <trip id="130" depart="985.0" from="ce6" to="ce2" type="standard_car" departLane="random" departSpeed="10" />
    <trip id="131" depart="999.0" from="ce3" to="ce5" type="standard_car" departLane="random" departSpeed="10" />
    <trip id="132" depart="1008.0" from="ce6" to="ce5" type="standard_car" departLane="random" departSpeed="10" />
    <trip id="133" depart="1013.0" from="ce6" to="ce7" type="standard_car" departLane="random" departSpeed="10" />
    <trip id="134" depart="1018.0" from="ce6" to="ce7" type="standard_car" departLane="random" departSpeed="10" />
    <trip id="135" depart="1019.0" from="ce6" to="ce2" type="standard_car" departLane="random" departSpeed="10" />
    <trip id="136" depart="1025.0" from="ce6" to="ce2" type="standard_car" departLane="random" departSpeed="10" />
    <trip id="137" depart="1028.0" from="ce6" to="ce7" type="standard_car" departLane="random" departSpeed="10" />
    <trip id="138" depart="1031.0" from="ce1" to="ce2" type="standard_car" departLane="random" departSpeed="10" />
    <trip id="139" depart="1032.0" from="ce6" to="ce7" type="standard_car" departLane="random" departSpeed="10" />
    <trip id="140" depart="1034.0" from="ce6" to="ce4" type="standard_car" departLane="random" departSpeed="10" />
    <trip id="141" depart="1073.0" from="ce6" to="ce7" type="standard_car" departLane="random" departSpeed="10" />
    <trip id="142" depart="1082.0" from="ce6" to="ce2" type="standard_car" departLane="random" departSpeed="10" />
    <trip id="143" depart="1086.0" from="ce6" to="ce7" type="standard_car" departLane="random" departSpeed="10" />
    <trip id="144" depart="1112.0" from="ce3" to="ce4" type="standard_car" departLane="random" departSpeed="10" />
    <trip id="145" depart="1130.0" from="ce6" to="ce7" type="standard_car" departLane="random" departSpeed="10" />
    <trip id="146" depart="1137.0" from="ce6" to="ce2" type="standard_car" departLane="random" departSpeed="10" />
    <trip id="147" depart="1138.0" from="ce6" to="ce2" type="standard_car" departLane="random" departSpeed="10" />
    <trip id="148" depart="1139.0" from="ce6" to="ce7" type="standard_car" departLane="random" departSpeed="10" />
    <trip id="149" depart="1139.0" from="ce6" to="ce7" type="standard_car" departLane="random" departSpeed="10" />
    <trip id="150" depart="1144.0" from="ce6" to="ce7" type="standard_car" departLane="random" departSpeed="10" />
    <trip id="151" depart="1161.0" from="ce6" to="ce2" type="standard_car" departLane="random" departSpeed="10" />
    <trip id="152" depart="1177.0" from="ce6" to="ce2" type="standard_car" departLane="random" departSpeed="10" />
    <trip id="153" depart="1196.0" from="ce6" to="ce4" type="standard_car" departLane="random" departSpeed="10" />
    <trip id="154" depart="1196.0" from="ce8" to="ce2" type="standard_car" departLane="random" departSpeed="10" />
    <trip id="155" depart="1199.0" from="ce6" to="ce2" type="standard_car" departLane="random" departSpeed="10" />
    <trip id="156" depart="1199.0" from="ce1" to="ce7" type="standard_car" departLane="random" departSpeed="10" />
    <trip id="157" depart="1229.0" from="ce6" to="ce2" type="standard_car" departLane="random" departSpeed="10" />
    <trip id="158" depart="1231.0" from="ce6" to="ce4" type="standard_car" departLane="random" departSpeed="10" />
    <trip id="159" depart="1232.0" from="ce3" to="ce5" type="standard_car" departLane="random" departSpeed="10" />
    <trip id="160" depart="1234.0" from="ce8" to="ce5" type="standard_car" departLane="random" departSpeed="10" />
    <trip id="161" depart="1235.0" from="ce6" to="ce4" type="standard_car" departLane="random" departSpeed="10" />
    <trip id="162" depart="1237.0" from="ce3" to="ce5" type="standard_car" departLane="random" departSpeed="10" />
    <trip id="163" depart="1238.0" from="ce6" to="ce2" type="standard_car" departLane="random" departSpeed="10" />
    <trip id="164" depart="1243.0" from="ce1" to="ce2" type="standard_car" departLane="random" departSpeed="10" />
    <trip id="165" depart="1263.0" from="ce6" to="ce2" type="standard_car" departLane="random" departSpeed="10" />
    <trip id="166" depart="1266.0" from="ce3" to="ce2" type="standard_car" departLane="random" departSpeed="10" />
    <trip id="167" depart="1275.0" from="ce3" to="ce2" type="standard_car" departLane="random" departSpeed="10" />
    <trip id="168" depart="1281.0" from="ce6" to="ce7" type="standard_car" departLane="random" departSpeed="10" />
    <trip id="169" depart="1289.0" from="ce6" to="ce4" type="standard_car" departLane="random" departSpeed="10" />
    <trip id="170" depart="1296.0" from="ce3" to="ce4" type="standard_car" departLane="random" departSpeed="10" />
    <trip id="171" depart="1297.0" from="ce6" to="ce2" type="standard_car" departLane="random" departSpeed="10" />
    <trip id="172" depart="1302.0" from="ce6" to="ce2" type="standard_car" departLane="random" departSpeed="10" />
    <trip id="173" depart="1302.0" from="ce6" to="ce7" type="standard_car" departLane="random" departSpeed="10" />
    <trip id="174" depart="1305.0" from="ce6" to="ce4" type="standard_car" departLane="random" departSpeed="10" />
    <trip id="175" depart="1306.0" from="ce6" to="ce4" type="standard_car" departLane="random" departSpeed="10" />
    <trip id="176" depart="1315.0" from="ce6" to="ce7" type="standard_car" departLane="random" departSpeed="10" />
    <trip id="177" depart="1316.0" from="ce6" to="ce4" type="standard_car" departLane="random" departSpeed="10" />
    <trip id="178" depart="1324.0" from="ce1" to="ce7" type="standard_car" departLane="random" departSpeed="10" />
    <trip id="179" depart="1325.0" from="ce6" to="ce7" type="standard_car" departLane="random" departSpeed="10" />
    <trip id="180" depart="1327.0" from="ce6" to="ce4" type="standard_car" departLane="random" departSpeed="10" />
    <trip id="181" depart="1335.0" from="ce6" to="ce4" type="standard_car" departLane="random" departSpeed="10" />
    <trip id="182" depart="1337.0" from="ce6" to="ce4" type="standard_car" departLane="random" departSpeed="10" />
    <trip id="183" depart="1341.0" from="ce3" to="ce7" type="standard_car" departLane="random" departSpeed="10" />
    <trip id="184" depart="1371.0" from="ce1" to="ce4" type="standard_car" departLane="random" departSpeed="10" />
    <trip id="185" depart="1373.0" from="ce6" to="ce2" type="standard_car" departLane="random" departSpeed="10" />
    <trip id="186" depart="1374.0" from="ce6" to="ce7" type="standard_car" departLane="random" departSpeed="10" />
    <trip id="187" depart="1378.0" from="ce6" to="ce7" type="standard_car" departLane="random" departSpeed="10" />
    <trip id="188" depart="1378.0" from="ce6" to="ce2" type="standard_car" departLane="random" departSpeed="10" />
    <trip id="189" depart="1380.0" from="ce6" to="ce7" type="standard_car" departLane="random" departSpeed="10" />
    <trip id="190" depart="1393.0" from="ce6" to="ce7" type="standard_car" departLane="random" departSpeed="10" />
    <trip id="191" depart="1394.0" from="ce6" to="ce7" type="standard_car" departLane="random" departSpeed="10" />
    <trip id="192" depart="1394.0" from="ce6" to="ce4" type="standard_car" departLane="random" departSpeed="10" />
    <trip id="193" depart="1399.0" from="ce1" to="ce5" type="standard_car" departLane="random" departSpeed="10" />
    <trip id="194" depart="1400.0" from="ce6" to="ce7" type="standard_car" departLane="random" departSpeed="10" />
    <trip id="195" depart="1413.0" from="ce6" to="ce2" type="standard_car" departLane="random" departSpeed="10" />
    <trip id="196" depart="1415.0" from="ce3" to="ce2" type="standard_car" departLane="random" departSpeed="10" />
    <trip id="197" depart="1417.0" from="ce8" to="ce2" type="standard_car" departLane="random" departSpeed="10" />
    <trip id="198" depart="1427.0" from="ce3" to="ce5" type="standard_car" departLane="random" departSpeed="10" />
    <trip id="199" depart="1434.0" from="ce6" to="ce2" type="standard_car" departLane="random" departSpeed="10" />
    <trip id="200" depart="1437.0" from="ce6" to="ce4" type="standard_car" departLane="random" departSpeed="10" />
    <trip id="201" depart="1443.0" from="ce6" to="ce2" type="standard_car" departLane="random" departSpeed="10" />
    <trip id="202" depart="1443.0" from="ce1" to="ce7" type="standard_car" departLane="random" departSpeed="10" />
    <trip id="203" depart="1444.0" from="ce6" to="ce2" type="standard_car" departLane="random" departSpeed="10" />
    <trip id="204" depart="1454.0" from="ce6" to="ce7" type="standard_car" departLane="random" departSpeed="10" />
    <trip id="205" depart="1472.0" from="ce6" to="ce4" type="standard_car" departLane="random" departSpeed="10" />
    <trip id="206" depart="1505.0" from="ce6" to="ce7" type="standard_car" departLane="random" departSpeed="10" />
    <trip id="207" depart="1509.0" from="ce6" to="ce7" type="standard_car" departLane="random" departSpeed="10" />
    <trip id="208" depart="1511.0" from="ce6" to="ce5" type="standard_car" departLane="random" departSpeed="10" />
    <trip id="209" depart="1517.0" from="ce6" to="ce7" type="standard_car" departLane="random" departSpeed="10" />
    <trip id="210" depart="1526.0" from="ce6" to="ce7" type="standard_car" departLane="random" departSpeed="10" />
    <trip id="211" depart="1533.0" from="ce6" to="ce2" type="standard_car" departLane="random" departSpeed="10" />
    <trip id="212" depart="1542.0" from="ce6" to="ce7" type="standard_car" departLane="random" departSpeed="10" />
    <trip id="213" depart="1543.0" from="ce6" to="ce7" type="standard_car" departLane="random" departSpeed="10" />
    <trip id="214" depart="1551.0" from="ce6" to="ce7" type="standard_car" departLane="random" departSpeed="10" />
    <trip id="215" depart="1553.0" from="ce6" to="ce7" type="standard_car" departLane="random" departSpeed="10" />
    <trip id="216" depart="1558.0" from="ce1" to="ce7" type="standard_car" departLane="random" departSpeed="10" />
    <trip id="217" depart="1563.0" from="ce3" to="ce5" type="standard_car" departLane="random" departSpeed="10" />
    <trip id="218" depart="1575.0" from="ce6" to="ce2" type="standard_car" departLane="random" departSpeed="10" />
    <trip id="219" depart="1576.0" from="ce6" to="ce7" type="standard_car" departLane="random" departSpeed="10" />
    <trip id="220" depart="1585.0" from="ce6" to="ce2" type="standard_car" departLane="random" departSpeed="10" />
    <trip id="221" depart="1593.0" from="ce6" to="ce4" type="standard_car" departLane="random" departSpeed="10" />
    <trip id="222" depart="1598.0" from="ce6" to="ce2" type="standard_car" departLane="random" departSpeed="10" />
    <trip id="223" depart="1613.0" from="ce6" to="ce2" type="standard_car" departLane="random" departSpeed="10" />
    <trip id="224" depart="1614.0" from="ce3" to="ce7" type="standard_car" departLane="random" departSpeed="10" />
    <trip id="225" depart="1615.0" from="ce6" to="ce2" type="standard_car" departLane="random" departSpeed="10" />
    <trip id="226" depart="1623.0" from="ce6" to="ce2" type="standard_car" departLane="random" departSpeed="10" />
    <trip id="227" depart="1654.0" from="ce6" to="ce5" type="standard_car" departLane="random" departSpeed="10" />
    <trip id="228" depart="1656.0" from="ce6" to="ce4" type="standard_car" departLane="random" departSpeed="10" />
    <trip id="229" depart="1659.0" from="ce6" to="ce4" type="standard_car" departLane="random" departSpeed="10" />
    <trip id="230" depart="1667.0" from="ce1" to="ce4" type="standard_car" departLane="random" departSpeed="10" />
    <trip id="231" depart="1685.0" from="ce6" to="ce2" type="standard_car" departLane="random" departSpeed="10" />
    <trip id="232" depart="1686.0" from="ce1" to="ce4" type="standard_car" departLane="random" departSpeed="10" />
    <trip id="233" depart="1719.0" from="ce6" to="ce7" type="standard_car" departLane="random" departSpeed="10" />
    <trip id="234" depart="1735.0" from="ce6" to="ce7" type="standard_car" departLane="random" departSpeed="10" />
    <trip id="235" depart="1747.0" from="ce3" to="ce2" type="standard_car" departLane="random" departSpeed="10" />
    <trip id="236" depart="1747.0" from="ce3" to="ce5" type="standard_car" departLane="random" departSpeed="10" />
    <trip id="237" depart="1748.0" from="ce6" to="ce2" type="standard_car" departLane="random" departSpeed="10" />
    <trip id="238" depart="1754.0" from="ce6" to="ce4" type="standard_car" departLane="random" departSpeed="10" />
    <trip id="239" depart="1769.0" from="ce3" to="ce4" type="standard_car" departLane="random" departSpeed="10" />
    <trip id="240" depart="1774.0" from="ce6" to="ce4" type="standard_car" departLane="random" departSpeed="10" />
    <trip id="241" depart="1787.0" from="ce6" to="ce2" type="standard_car" departLane="random" departSpeed="10" />
    <trip id="242" depart="1789.0" from="ce3" to="ce7" type="standard_car" departLane="random" departSpeed="10" />
    <trip id="243" depart="1789.0" from="ce6" to="ce4" type="standard_car" departLane="random" departSpeed="10" />
    <trip id="244" depart="1793.0" from="ce6" to="ce4" type="standard_car" departLane="random" departSpeed="10" />
    <trip id="245" depart="1793.0" from="ce6" to="ce2" type="standard_car" departLane="random" departSpeed="10" />
    <trip id="246" depart="1803.0" from="ce3" to="ce4" type="standard_car" departLane="random" departSpeed="10" />
    <trip id="247" depart="1812.0" from="ce6" to="ce5" type="standard_car" departLane="random" departSpeed="10" />
    <trip id="248" depart="1820.0" from="ce6" to="ce4" type="standard_car" departLane="random" departSpeed="10" />
    <trip id="249" depart="1835.0" from="ce6" to="ce2" type="standard_car" departLane="random" departSpeed="10" />
    <trip id="250" depart="1842.0" from="ce6" to="ce2" type="standard_car" departLane="random" departSpeed="10" />
    <trip id="251" depart="1847.0" from="ce6" to="ce4" type="standard_car" departLane="random" departSpeed="10" />
    <trip id="252" depart="1862.0" from="ce6" to="ce7" type="standard_car" departLane="random" departSpeed="10" />
    <trip id="253" depart="1876.0" from="ce6" to="ce5" type="standard_car" departLane="random" departSpeed="10" />
    <trip id="254" depart="1880.0" from="ce6" to="ce5" type="standard_car" departLane="random" departSpeed="10" />
    <trip id="255" depart="1883.0" from="ce3" to="ce5" type="standard_car" departLane="random" departSpeed="10" />
    <trip id="256" depart="1883.0" from="ce6" to="ce4" type="standard_car" departLane="random" departSpeed="10" />
    <trip id="257" depart="1886.0" from="ce6" to="ce2" type="standard_car" departLane="random" departSpeed="10" />
    <trip id="258" depart="1886.0" from="ce3" to="ce7" type="standard_car" departLane="random" departSpeed="10" />
    <trip id="259" depart="1908.0" from="ce1" to="ce5" type="standard_car" departLane="random" departSpeed="10" />
    <trip id="260" depart="1931.0" from="ce6" to="ce7" type="standard_car" departLane="random" departSpeed="10" />