<?xml version="1.0" ?>
<connections>
	<connection from="ce1" to="ce4" fromLane="0" toLane="0"/>
	<connection from="ce1" to="ce5" fromLane="0" toLane="0"/>
	<connection from="ce1" to="ce5" fromLane="1" toLane="1"/>
	<connection from="ce1" to="ce5" fromLane="2" toLane="2"/>
	<connection from="ce1" to="ce7" fromLane="3" toLane="3"/>
	<connection from="ce3" to="ce2" fromLane="3" toLane="3"/>
	<connection from="ce3" to="ce5" fromLane="0" toLane="0"/>
	<connection from="ce3" to="ce7" fromLane="0" toLane="0"/>
	<connection from="ce3" to="ce7" fromLane="1" toLane="1"/>
	<connection from="ce3" to="ce7" fromLane="2" toLane="2"/>
	<connection from="ce6" to="ce2" fromLane="0" toLane="0"/>
	<connection from="ce6" to="ce2" fromLane="1" toLane="1"/>
	<connection from="ce6" to="ce2" fromLane="2" toLane="2"/>
	<connection from="ce6" to="ce4" fromLane="3" toLane="3"/>
	<connection from="ce6" to="ce7" fromLane="0" toLane="0"/>
	<connection from="ce8" to="ce2" fromLane="0" toLane="0"/>
	<connection from="ce8" to="ce4" fromLane="0" toLane="0"/>
	<connection from="ce8" to="ce4" fromLane="1" toLane="1"/>
	<connection from="ce8" to="ce4" fromLane="2" toLane="2"/>
	<connection from="ce8" to="ce5" fromLane="3" toLane="3"/>
</connections>
