<routes>
             <vType accel="1.0" decel="4.5" id="standard_car" length="5.0" minGap="2.5" maxSpeed="25" sigma="0.5" />
                    
    <trip id="0" depart="11.0" from="ce6" to="ce7" type="standard_car" departLane="random" departSpeed="10" />
    <trip id="1" depart="18.0" from="ce6" to="ce7" type="standard_car" departLane="random" departSpeed="10" />
    <trip id="2" depart="37.0" from="ce6" to="ce7" type="standard_car" departLane="random" departSpeed="10" />
    <trip id="3" depart="37.0" from="ce6" to="ce2" type="standard_car" departLane="random" departSpeed="10" />
    <trip id="4" depart="40.0" from="ce6" to="ce2" type="standard_car" departLane="random" departSpeed="10" />
    <trip id="5" depart="61.0" from="ce6" to="ce7" type="standard_car" departLane="random" departSpeed="10" />
    <trip id="6" depart="67.0" from="ce3" to="ce2" type="standard_car" departLane="random" departSpeed="10" />
    <trip id="7" depart="82.0" from="ce6" to="ce7" type="standard_car" departLane="random" departSpeed="10" />
    <trip id="8" depart="92.0" from="ce6" to="ce2" type="standard_car" departLane="random" departSpeed="10" />
    <trip id="9" depart="99.0" from="ce6" to="ce7" type="standard_car" departLane="random" departSpeed="10" />
    <trip id="10" depart="102.0" from="ce3" to="ce7" type="standard_car" departLane="random" departSpeed="10" />
    <trip id="11" depart="105.0" from="ce1" to="ce4" type="standard_car" departLane="random" departSpeed="10" />
    <trip id="12" depart="117.0" from="ce6" to="ce2" type="standard_car" departLane="random" departSpeed="10" />
    <trip id="13" depart="118.0" from="ce6" to="ce5" type="standard_car" departLane="random" departSpeed="10" />
    <trip id="14" depart="121.0" from="ce6" to="ce2" type="standard_car" departLane="random" departSpeed="10" />
    <trip id="15" depart="129.0" from="ce6" to="ce7" type="standard_car" departLane="random" departSpeed="10" />
    <trip id="16" depart="131.0" from="ce6" to="ce2" type="standard_car" departLane="random" departSpeed="10" />
    <trip id="17" depart="131.0" from="ce6" to="ce2" type="standard_car" departLane="random" departSpeed="10" />
    <trip id="18" depart="131.0" from="ce6" to="ce7" type="standard_car" departLane="random" departSpeed="10" />
    <trip id="19" depart="137.0" from="ce6" to="ce2" type="standard_car" departLane="random" departSpeed="10" />
    <trip id="20" depart="139.0" from="ce3" to="ce7" type="standard_car" departLane="random" departSpeed="10" />
    <trip id="21" depart="139.0" from="ce6" to="ce4" type="standard_car" departLane="random" departSpeed="10" />
    <trip id="22" depart="142.0" from="ce6" to="ce2" type="standard_car" departLane="random" departSpeed="10" />
    <trip id="23" depart="151.0" from="ce6" to="ce7" type="standard_car" departLane="random" departSpeed="10" />
    <trip id="24" depart="151.0" from="ce6" to="ce4" type="standard_car" departLane="random" departSpeed="10" />
    <trip id="25" depart="155.0" from="ce6" to="ce2" type="standard_car" departLane="random" departSpeed="10" />
    <trip id="26" depart="164.0" from="ce3" to="ce7" type="standard_car" departLane="random" departSpeed="10" />
    <trip id="27" depart="176.0" from="ce6" to="ce2" type="standard_car" departLane="random" departSpeed="10" />
    <trip id="28" depart="187.0" from="ce6" to="ce4" type="standard_car" departLane="random" departSpeed="10" />
    <trip id="29" depart="191.0" from="ce6" to="ce7" type="standard_car" departLane="random" departSpeed="10" />
    <trip id="30" depart="194.0" from="ce6" to="ce7" type="standard_car" departLane="random" departSpeed="10" />
    <trip id="31" depart="207.0" from="ce1" to="ce4" type="standard_car" departLane="random" departSpeed="10" />
    <trip id="32" depart="219.0" from="ce6" to="ce4" type="standard_car" departLane="random" departSpeed="10" />
    <trip id="33" depart="251.0" from="ce3" to="ce5" type="standard_car" departLane="random" departSpeed="10" />
    <trip id="34" depart="260.0" from="ce6" to="ce4" type="standard_car" departLane="random" departSpeed="10" />
    <trip id="35" depart="263.0" from="ce6" to="ce2" type="standard_car" departLane="random" departSpeed="10" />
    <trip id="36" depart="282.0" from="ce6" to="ce5" type="standard_car" departLane="random" departSpeed="10" />
    <trip id="37" depart="285.0" from="ce6" to="ce7" type="standard_car" departLane="random" departSpeed="10" />
    <trip id="38" depart="289.0" from="ce6" to="ce4" type="standard_car" departLane="random" departSpeed="10" />
    <trip id="39" depart="301.0" from="ce6" to="ce7" type="standard_car" departLane="random" departSpeed="10" />
    <trip id="40" depart="303.0" from="ce3" to="ce2" type="standard_car" departLane="random" departSpeed="10" />
    <trip id="41" depart="329.0" from="ce6" to="ce4" type="standard_car" departLane="random" departSpeed="10" />
    <trip id="42" depart="338.0" from="ce6" to="ce2" type="standard_car" departLane="random" departSpeed="10" />
    <trip id="43" depart="360.0" from="ce6" to="ce2" type="standard_car" departLane="random" departSpeed="10" />
    <trip id="44" depart="363.0" from="ce6" to="ce4" type="standard_car" departLane="random" departSpeed="10" />
    <trip id="45" depart="364.0" from="ce1" to="ce4" type="standard_car" departLane="random" departSpeed="10" />
    <trip id="46" depart="371.0" from="ce6" to="ce7" type="standard_car" departLane="random" departSpeed="10" />
    <trip id="47" depart="378.0" from="ce6" to="ce4" type="standard_car" departLane="random" departSpeed="10" />
    <trip id="48" depart="394.0" from="ce8" to="ce4" type="standard_car" departLane="random" departSpeed="10" />
    <trip id="49" depart="394.0" from="ce6" to="ce7" type="standard_car" departLane="random" departSpeed="10" />
    <trip id="50" depart="405.0" from="ce1" to="ce4" type="standard_car" departLane="random" departSpeed="10" />
    <trip id="51" depart="408.0" from="ce6" to="ce7" type="standard_car" departLane="random" departSpeed="10" />
    <trip id="52" depart="411.0" from="ce6" to="ce2" type="standard_car" departLane="random" departSpeed="10" />
    <trip id="53" depart="413.0" from="ce6" to="ce4" type="standard_car" departLane="random" departSpeed="10" />
    <trip id="54" depart="418.0" from="ce3" to="ce7" type="standard_car" departLane="random" departSpeed="10" />
    <trip id="55" depart="436.0" from="ce6" to="ce2" type="standard_car" departLane="random" departSpeed="10" />
    <trip id="56" depart="441.0" from="ce6" to="ce4" type="standard_car" departLane="random" departSpeed="10" />
    <trip id="57" depart="444.0" from="ce8" to="ce2" type="standard_car" departLane="random" departSpeed="10" />
    <trip id="58" depart="461.0" from="ce6" to="ce7" type="standard_car" departLane="random" departSpeed="10" />
    <trip id="59" depart="467.0" from="ce3" to="ce2" type="standard_car" departLane="random" departSpeed="10" />
    <trip id="60" depart="473.0" from="ce6" to="ce5" type="standard_car" departLane="random" departSpeed="10" />
    <trip id="61" depart="481.0" from="ce3" to="ce2" type="standard_car" departLane="random" departSpeed="10" />
    <trip id="62" depart="482.0" from="ce6" to="ce4" type="standard_car" departLane="random" departSpeed="10" />
    <trip id="63" depart="490.0" from="ce6" to="ce2" type="standard_car" departLane="random" departSpeed="10" />
    <trip id="64" depart="492.0" from="ce6" to="ce7" type="standard_car" departLane="random" departSpeed="10" />
    <trip id="65" depart="495.0" from="ce6" to="ce2" type="standard_car" departLane="random" departSpeed="10" />
    <trip id="66" depart="499.0" from="ce8" to="ce5" type="standard_car" departLane="random" departSpeed="10" />
    <trip id="67" depart="500.0" from="ce8" to="ce4" type="standard_car" departLane="random" departSpeed="10" />
    <trip id="68" depart="503.0" from="ce6" to="ce5" type="standard_car" departLane="random" departSpeed="10" />
    <trip id="69" depart="512.0" from="ce6" to="ce4" type="standard_car" departLane="random" departSpeed="10" />
    <trip id="70" depart="515.0" from="ce6" to="ce7" type="standard_car" departLane="random" departSpeed="10" />
    <trip id="71" depart="533.0" from="ce1" to="ce4" type="standard_car" departLane="random" departSpeed="10" />
    <trip id="72" depart="538.0" from="ce1" to="ce5" type="standard_car" departLane="random" departSpeed="10" />
    <trip id="73" depart="547.0" from="ce8" to="ce2" type="standard_car" departLane="random" departSpeed="10" />
    <trip id="74" depart="563.0" from="ce6" to="ce5" type="standard_car" departLane="random" departSpeed="10" />
    <trip id="75" depart="563.0" from="ce6" to="ce5" type="standard_car" departLane="random" departSpeed="10" />
    <trip id="76" depart="585.0" from="ce6" to="ce5" type="standard_car" departLane="random" departSpeed="10" />
    <trip id="77" depart="600.0" from="ce6" to="ce2" type="standard_car" departLane="random" departSpeed="10" />
    <trip id="78" depart="610.0" from="ce6" to="ce7" type="standard_car" departLane="random" departSpeed="10" />
    <trip id="79" depart="611.0" from="ce6" to="ce4" type="standard_car" departLane="random" departSpeed="10" />
    <trip id="80" depart="627.0" from="ce3" to="ce2" type="standard_car" departLane="random" departSpeed="10" />
    <trip id="81" depart="641.0" from="ce6" to="ce7" type="standard_car" departLane="random" departSpeed="10" />
    <trip id="82" depart="643.0" from="ce6" to="ce7" type="standard_car" departLane="random" departSpeed="10" />
    <trip id="83" depart="643.0" from="ce6" to="ce7" type="standard_car" departLane="random" departSpeed="10" />
    <trip id="84" depart="652.0" from="ce6" to="ce7" type="standard_car" departLane="random" departSpeed="10" />
    <trip id="85" depart="659.0" from="ce1" to="ce5" type="standard_car" departLane="random" departSpeed="10" />
    <trip id="86" depart="659.0" from="ce6" to="ce2" type="standard_car" departLane="random" departSpeed="10" />
    <trip id="87" depart="665.0" from="ce6" to="ce7" type="standard_car" departLane="random" departSpeed="10" />
    <trip id="88" depart="668.0" from="ce6" to="ce2" type="standard_car" departLane="random" departSpeed="10" />
    <trip id="89" depart="668.0" from="ce6" to="ce4" type="standard_car" departLane="random" departSpeed="10" />
    <trip id="90" depart="672.0" from="ce8" to="ce2" type="standard_car" departLane="random" departSpeed="10" />
    <trip id="91" depart="674.0" from="ce1" to="ce2" type="standard_car" departLane="random" departSpeed="10" />
    <trip id="92" depart="674.0" from="ce6" to="ce2" type="standard_car" departLane="random" departSpeed="10" />
    <trip id="93" depart="683.0" from="ce6" to="ce2" type="standard_car" departLane="random" departSpeed="10" />
    <trip id="94" depart="696.0" from="ce6" to="ce4" type="standard_car" departLane="random" departSpeed="10" />
    <trip id="95" depart="708.0" from="ce6" to="ce2" type="standard_car" departLane="random" departSpeed="10" />
    <trip id="96" depart="717.0" from="ce6" to="ce2" type="standard_car" departLane="random" departSpeed="10" />
    <trip id="97" depart="718.0" from="ce6" to="ce2" type="standard_car" departLane="random" departSpeed="10" />
    <trip id="98" depart="719.0" from="ce6" to="ce7" type="standard_car" departLane="random" departSpeed="10" />
    <trip id="99" depart="724.0" from="ce6" to="ce7" type="standard_car" departLane="random" departSpeed="10" />
    <trip id="100" depart="724.0" from="ce3" to="ce5" type="standard_car" departLane="random" departSpeed="10" />
    <trip id="101" depart="729.0" from="ce6" to="ce4" type="standard_car" departLane="random" departSpeed="10" />
    <trip id="102" depart="733.0" from="ce6" to="ce4" type="standard_car" departLane="random" departSpeed="10" />
    <trip id="103" depart="771.0" from="ce6" to="ce2" type="standard_car" departLane="random" departSpeed="10" />
    <trip id="104" depart="780.0" from="ce6" to="ce2" type="standard_car" departLane="random" departSpeed="10" />
    <trip id="105" depart="786.0" from="ce6" to="ce4" type="standard_car" departLane="random" departSpeed="10" />
    <trip id="106" depart="787.0" from="ce6" to="ce7" type="standard_car" departLane="random" departSpeed="10" />
    <trip id="107" depart="787.0" from="ce3" to="ce5" type="standard_car" departLane="random" departSpeed="10" />
    <trip id="108" depart="800.0" from="ce6" to="ce4" type="standard_car" departLane="random" departSpeed="10" />
    <trip id="109" depart="800.0" from="ce6" to="ce2" type="standard_car" departLane="random" departSpeed="10" />
    <trip id="110" depart="802.0" from="ce8" to="ce2" type="standard_car" departLane="random" departSpeed="10" />
    <trip id="111" depart="806.0" from="ce6" to="ce2" type="standard_car" departLane="random" departSpeed="10" />
    <trip id="112" depart="809.0" from="ce6" to="ce4" type="standard_car" departLane="random" departSpeed="10" />
    <trip id="113" depart="819.0" from="ce1" to="ce5" type="standard_car" departLane="random" departSpeed="10" />
    <trip id="114" depart="836.0" from="ce6" to="ce5" type="standard_car" departLane="random" departSpeed="10" />
    <trip id="115" depart="837.0" from="ce6" to="ce2" type="standard_car" departLane="random" departSpeed="10" />
    <trip id="116" depart="875.0" from="ce6" to="ce5" type="standard_car" departLane="random" departSpeed="10" />
    <trip id="117" depart="881.0" from="ce6" to="ce4" type="standard_car" departLane="random" departSpeed="10" />
    <trip id="118" depart="885.0" from="ce6" to="ce4" type="standard_car" departLane="random" departSpeed="10" />
    <trip id="119" depart="893.0" from="ce6" to="ce4" type="standard_car" departLane="random" departSpeed="10" />
    <trip id="120" depart="899.0" from="ce3" to="ce5" type="standard_car" departLane="random" departSpeed="10" />
    <trip id="121" depart="900.0" from="ce6" to="ce7" type="standard_car" departLane="random" departSpeed="10" />
    <trip id="122" depart="907.0" from="ce1" to="ce2" type="standard_car" departLane="random" departSpeed="10" />
    <trip id="123" depart="913.0" from="ce6" to="ce4" type="standard_car" departLane="random" departSpeed="10" />
    <trip id="124" depart="940.0" from="ce6" to="ce4" type="standard_car" departLane="random" departSpeed="10" />
    <trip id="125" depart="940.0" from="ce6" to="ce7" type="standard_car" departLane="random" departSpeed="10" />
    <trip id="126" depart="940.0" from="ce3" to="ce2" type="standard_car" departLane="random" departSpeed="10" />
    <trip id="127" depart="944.0" from="ce6" to="ce2" type="standard_car" departLane="random" departSpeed="10" />
    <trip id="128" depart="948.0" from="ce1" to="ce7" type="standard_car" departLane="random" departSpeed="10" />
    <trip id="129" depart="955.0" from="ce3" to="ce7" type="standard_car" departLane="random" departSpeed="10" />
    <trip id="130" depart="960.0" from="ce1" to="ce7" type="standard_car" departLane="random" departSpeed="10" />
    <trip id="131" depart="975.0" from="ce6" to="ce2" type="standard_car" departLane="random" departSpeed="10" />
    <trip id="132" depart="980.0" from="ce6" to="ce4" type="standard_car" departLane="random" departSpeed="10" />
    <trip id="133" depart="981.0" from="ce8" to="ce4" type="standard_car" departLane="random" departSpeed="10" />
    <trip id="134" depart="986.0" from="ce6" to="ce7" type="standard_car" departLane="random" departSpeed="10" />
    <trip id="135" depart="1004.0" from="ce6" to="ce2" type="standard_car" departLane="random" departSpeed="10" />
    <trip id="136" depart="1018.0" from="ce6" to="ce2" type="standard_car" departLane="random" departSpeed="10" />
    <trip id="137" depart="1029.0" from="ce6" to="ce2" type="standard_car" departLane="random" departSpeed="10" />
    <trip id="138" depart="1029.0" from="ce6" to="ce2" type="standard_car" departLane="random" departSpeed="10" />
    <trip id="139" depart="1031.0" from="ce6" to="ce2" type="standard_car" departLane="random" departSpeed="10" />
    <trip id="140" depart="1038.0" from="ce6" to="ce4" type="standard_car" departLane="random" departSpeed="10" />
    <trip id="141" depart="1039.0" from="ce6" to="ce2" type="standard_car" departLane="random" departSpeed="10" />
    <trip id="142" depart="1041.0" from="ce6" to="ce4" type="standard_car" departLane="random" departSpeed="10" />
    <trip id="143" depart="1041.0" from="ce3" to="ce7" type="standard_car" departLane="random" departSpeed="10" />
    <trip id="144" depart="1048.0" from="ce6" to="ce7" type="standard_car" departLane="random" departSpeed="10" />
    <trip id="145" depart="1060.0" from="ce6" to="ce2" type="standard_car" departLane="random" departSpeed="10" />
    <trip id="146" depart="1067.0" from="ce6" to="ce7" type="standard_car" departLane="random" departSpeed="10" />
    <trip id="147" depart="1067.0" from="ce3" to="ce5" type="standard_car" departLane="random" departSpeed="10" />
    <trip id="148" depart="1072.0" from="ce6" to="ce7" type="standard_car" departLane="random" departSpeed="10" />
    <trip id="149" depart="1089.0" from="ce6" to="ce2" type="standard_car" departLane="random" departSpeed="10" />
    <trip id="150" depart="1090.0" from="ce1" to="ce5" type="standard_car" departLane="random" departSpeed="10" />
    <trip id="151" depart="1110.0" from="ce6" to="ce5" type="standard_car" departLane="random" departSpeed="10" />
    <trip id="152" depart="1116.0" from="ce1" to="ce5" type="standard_car" departLane="random" departSpeed="10" />
    <trip id="153" depart="1120.0" from="ce6" to="ce7" type="standard_car" departLane="random" departSpeed="10" />
    <trip id="154" depart="1130.0" from="ce1" to="ce5" type="standard_car" departLane="random" departSpeed="10" />
    <trip id="155" depart="1130.0" from="ce1" to="ce5" type="standard_car" departLane="random" departSpeed="10" />
    <trip id="156" depart="1134.0" from="ce6" to="ce4" type="standard_car" departLane="random" departSpeed="10" />
    <trip id="157" depart="1135.0" from="ce6" to="ce2" type="standard_car" departLane="random" departSpeed="10" />
    <trip id="158" depart="1155.0" from="ce6" to="ce7" type="standard_car" departLane="random" departSpeed="10" />
    <trip id="159" depart="1156.0" from="ce6" to="ce4" type="standard_car" departLane="random" departSpeed="10" />
    <trip id="160" depart="1162.0" from="ce6" to="ce7" type="standard_car" departLane="random" departSpeed="10" />
    <trip id="161" depart="1172.0" from="ce6" to="ce4" type="standard_car" departLane="random" departSpeed="10" />
    <trip id="162" depart="1176.0" from="ce3" to="ce2" type="standard_car" departLane="random" departSpeed="10" />
    <trip id="163" depart="1188.0" from="ce6" to="ce7" type="standard_car" departLane="random" departSpeed="10" />
    <trip id="164" depart="1200.0" from="ce6" to="ce4" type="standard_car" departLane="random" departSpeed="10" />
    <trip id="165" depart="1216.0" from="ce1" to="ce4" type="standard_car" departLane="random" departSpeed="10" />
    <trip id="166" depart="1220.0" from="ce3" to="ce7" type="standard_car" departLane="random" departSpeed="10" />
    <trip id="167" depart="1230.0" from="ce8" to="ce5" type="standard_car" departLane="random" departSpeed="10" />
    <trip id="168" depart="1234.0" from="ce6" to="ce7" type="standard_car" departLane="random" departSpeed="10" />
    <trip id="169" depart="1242.0" from="ce1" to="ce4" type="standard_car" departLane="random" departSpeed="10" />
    <trip id="170" depart="1244.0" from="ce6" to="ce2" type="standard_car" departLane="random" departSpeed="10" />
    <trip id="171" depart="1249.0" from="ce6" to="ce2" type="standard_car" departLane="random" departSpeed="10" />
    <trip id="172" depart="1255.0" from="ce6" to="ce2" type="standard_car" departLane="random" departSpeed="10" />
    <trip id="173" depart="1267.0" from="ce6" to="ce2" type="standard_car" departLane="random" departSpeed="10" />
    <trip id="174" depart="1271.0" from="ce6" to="ce4" type="standard_car" departLane="random" departSpeed="10" />
    <trip id="175" depart="1280.0" from="ce1" to="ce7" type="standard_car" departLane="random" departSpeed="10" />
    <trip id="176" depart="1283.0" from="ce8" to="ce4" type="standard_car" departLane="random" departSpeed="10" />
    <trip id="177" depart="1284.0" from="ce6" to="ce2" type="standard_car" departLane="random" departSpeed="10" />
    <trip id="178" depart="1300.0" from="ce6" to="ce2" type="standard_car" departLane="random" departSpeed="10" />
    <trip id="179" depart="1323.0" from="ce6" to="ce5" type="standard_car" departLane="random" departSpeed="10" />
    <trip id="180" depart="1329.0" from="ce6" to="ce2" type="standard_car" departLane="random" departSpeed="10" />
    <trip id="181" depart="1330.0" from="ce6" to="ce4" type="standard_car" departLane="random" departSpeed="10" />
    <trip id="182" depart="1345.0" from="ce6" to="ce4" type="standard_car" departLane="random" departSpeed="10" />
    <trip id="183" depart="1349.0" from="ce6" to="ce7" type="standard_car" departLane="random" departSpeed="10" />
    <trip id="184" depart="1350.0" from="ce8" to="ce5" type="standard_car" departLane="random" departSpeed="10" />
    <trip id="185" depart="1369.0" from="ce1" to="ce7" type="standard_car" departLane="random" departSpeed="10" />
    <trip id="186" depart="1371.0" from="ce3" to="ce7" type="standard_car" departLane="random" departSpeed="10" />
    <trip id="187" depart="1374.0" from="ce6" to="ce2" type="standard_car" departLane="random" departSpeed="10" />
    <trip id="188" depart="1390.0" from="ce1" to="ce7" type="standard_car" departLane="random" departSpeed="10" />
    <trip id="189" depart="1391.0" from="ce6" to="ce7" type="standard_car" departLane="random" departSpeed="10" />
    <trip id="190" depart="1392.0" from="ce1" to="ce7" type="standard_car" departLane="random" departSpeed="10" />
    <trip id="191" depart="1393.0" from="ce6" to="ce2" type="standard_car" departLane="random" departSpeed="10" />
    <trip id="192" depart="1417.0" from="ce6" to="ce2" type="standard_car" departLane="random" departSpeed="10" />
    <trip id="193" depart="1424.0" from="ce6" to="ce4" type="standard_car" departLane="random" departSpeed="10" />
    <trip id="194" depart="1439.0" from="ce6" to="ce4" type="standard_car" departLane="random" departSpeed="10" />
    <trip id="195" depart="1439.0" from="ce8" to="ce4" type="standard_car" departLane="random" departSpeed="10" />
    <trip id="196" depart="1456.0" from="ce6" to="ce2" type="standard_car" departLane="random" departSpeed="10" />
    <trip id="197" depart="1457.0" from="ce6" to="ce2" type="standard_car" departLane="random" departSpeed="10" />
    <trip id="198" depart="1460.0" from="ce6" to="ce5" type="standard_car" departLane="random" departSpeed="10" />
    <trip id="199" depart="1462.0" from="ce8" to="ce5" type="standard_car" departLane="random" departSpeed="10" />
    <trip id="200" depart="1463.0" from="ce8" to="ce2" type="standard_car" departLane="random" departSpeed="10" />
    <trip id="201" depart="1470.0" from="ce6" to="ce7" type="standard_car" departLane="random" departSpeed="10" />
    <trip id="202" depart="1492.0" from="ce6" to="ce2" type="standard_car" departLane="random" departSpeed="10" />
    <trip id="203" depart="1497.0" from="ce6" to="ce4" type="standard_car" departLane="random" departSpeed="10" />
    <trip id="204" depart="1499.0" from="ce6" to="ce4" type="standard_car" departLane="random" departSpeed="10" />
    <trip id="205" depart="1507.0" from="ce6" to="ce2" type="standard_car" departLane="random" departSpeed="10" />
    <trip id="206" depart="1528.0" from="ce6" to="ce5" type="standard_car" departLane="random" departSpeed="10" />
    <trip id="207" depart="1532.0" from="ce8" to="ce5" type="standard_car" departLane="random" departSpeed="10" />
    <trip id="208" depart="1538.0" from="ce1" to="ce4" type="standard_car" departLane="random" departSpeed="10" />
    <trip id="209" depart="1546.0" from="ce6" to="ce2" type="standard_car" departLane="random" departSpeed="10" />
    <trip id="210" depart="1548.0" from="ce6" to="ce2" type="standard_car" departLane="random" departSpeed="10" />
    <trip id="211" depart="1561.0" from="ce6" to="ce2" type="standard_car" departLane="random" departSpeed="10" />
    <trip id="212" depart="1566.0" from="ce6" to="ce2" type="standard_car" departLane="random" departSpeed="10" />
    <trip id="213" depart="1568.0" from="ce8" to="ce7" type="standard_car" departLane="random" departSpeed="10" />
    <trip id="214" depart="1590.0" from="ce6" to="ce4" type="standard_car" departLane="random" departSpeed="10" />
    <trip id="215" depart="1599.0" from="ce3" to="ce5" type="standard_car" departLane="random" departSpeed="10" />
    <trip id="216" depart="1600.0" from="ce1" to="ce4" type="standard_car" departLane="random" departSpeed="10" />
    <trip id="217" depart="1619.0" from="ce6" to="ce4" type="standard_car" departLane="random" departSpeed="10" />
    <trip id="218" depart="1624.0" from="ce6" to="ce7" type="standard_car" departLane="random" departSpeed="10" />
    <trip id="219" depart="1632.0" from="ce8" to="ce5" type="standard_car" departLane="random" departSpeed="10" />
    <trip id="220" depart="1637.0" from="ce6" to="ce7" type="standard_car" departLane="random" departSpeed="10" />
    <trip id="221" depart="1640.0" from="ce8" to="ce4" type="standard_car" departLane="random" departSpeed="10" />
    <trip id="222" depart="1662.0" from="ce6" to="ce7" type="standard_car" departLane="random" departSpeed="10" />
    <trip id="223" depart="1663.0" from="ce6" to="ce7" type="standard_car" departLane="random" departSpeed="10" />
    <trip id="224" depart="1669.0" from="ce6" to="ce7" type="standard_car" departLane="random" departSpeed="10" />
    <trip id="225" depart="1669.0" from="ce6" to="ce4" type="standard_car" departLane="random" departSpeed="10" />
    <trip id="226" depart="1672.0" from="ce6" to="ce7" type="standard_car" departLane="random" departSpeed="10" />
    <trip id="227" depart="1676.0" from="ce3" to="ce5" type="standard_car" departLane="random" departSpeed="10" />
    <trip id="228" depart="1704.0" from="ce6" to="ce4" type="standard_car" departLane="random" departSpeed="10" />
    <trip id="229" depart="1705.0" from="ce1" to="ce4" type="standard_car" departLane="random" departSpeed="10" />
    <trip id="230" depart="1710.0" from="ce6" to="ce5" type="standard_car" departLane="random" departSpeed="10" />
    <trip id="231" depart="1714.0" from="ce6" to="ce4" type="standard_car" departLane="random" departSpeed="10" />
    <trip id="232" depart="1717.0" from="ce6" to="ce5" type="standard_car" departLane="random" departSpeed="10" />
    <trip id="233" depart="1721.0" from="ce6" to="ce7" type="standard_car" departLane="random" departSpeed="10" />
    <trip id="234" depart="1721.0" from="ce6" to="ce7" type="standard_car" departLane="random" departSpeed="10" />
    <trip id="235" depart="1744.0" from="ce3" to="ce2" type="standard_car" departLane="random" departSpeed="10" />
    <trip id="236" depart="1766.0" from="ce1" to="ce7" type="standard_car" departLane="random" departSpeed="10" />
    <trip id="237" depart="1771.0" from="ce6" to="ce7" type="standard_car" departLane="random" departSpeed="10" />
    <trip id="238" depart="1775.0" from="ce1" to="ce5" type="standard_car" departLane="random" departSpeed="10" />
    <trip id="239" depart="1778.0" from="ce3" to="ce7" type="standard_car" departLane="random" departSpeed="10" />
    <trip id="240" depart="1780.0" from="ce6" to="ce4" type="standard_car" departLane="random" departSpeed="10" />
    <trip id="241" depart="1781.0" from="ce6" to="ce7" type="standard_car" departLane="random" departSpeed="10" />
    <trip id="242" depart="1785.0" from="ce6" to="ce5" type="standard_car" departLane="random" departSpeed="10" />
    <trip id="243" depart="1787.0" from="ce6" to="ce2" type="standard_car" departLane="random" departSpeed="10" />
    <trip id="244" depart="1793.0" from="ce6" to="ce7" type="standard_car" departLane="random" departSpeed="10" />
    <trip id="245" depart="1797.0" from="ce6" to="ce7" type="standard_car" departLane="random" departSpeed="10" />
    <trip id="246" depart="1800.0" from="ce6" to="ce7" type="standard_car" departLane="random" departSpeed="10" />
    <trip id="247" depart="1807.0" from="ce6" to="ce4" type="standard_car" departLane="random" departSpeed="10" />
    <trip id="248" depart="1819.0" from="ce6" to="ce7" type="standard_car" departLane="random" departSpeed="10" />
    <trip id="249" depart="1821.0" from="ce1" to="ce7" type="standard_car" departLane="random" departSpeed="10" />
    <trip id="250" depart="1829.0" from="ce1" to="ce7" type="standard_car" departLane="random" departSpeed="10" />
    <trip id="251" depart="1863.0" from="ce8" to="ce5" type="standard_car" departLane="random" departSpeed="10" />
    <trip id="252" depart="1873.0" from="ce3" to="ce7" type="standard_car" departLane="random" departSpeed="10" />
    <trip id="253" depart="1875.0" from="ce6" to="ce2" type="standard_car" departLane="random" departSpeed="10" />
    <trip id="254" depart="1876.0" from="ce8" to="ce4" type="standard_car" departLane="random" departSpeed="10" />
    <trip id="255" depart="1877.0" from="ce6" to="ce2" type="standard_car" departLane="random" departSpeed="10" />
    <trip id="256" depart="1877.0" from="ce6" to="ce2" type="standard_car" departLane="random" departSpeed="10" />
    <trip id="257" depart="1884.0" from="ce6" to="ce2" type="standard_car" departLane="random" departSpeed="10" />
    <trip id="258" depart="1885.0" from="ce6" to="ce5" type="standard_car" departLane="random" departSpeed="10" />
    <trip id="259" depart="1895.0" from="ce6" to="ce5" type="standard_car" departLane="random" departSpeed="10" />
    <trip id="260" depart="1904.0" from="ce8" to="ce4" type="standard_car" departLane="random" departSpeed="10" />