<routes>
             <vType accel="1.0" decel="4.5" id="standard_car" length="5.0" minGap="2.5" maxSpeed="25" sigma="0.5" />
                    
    <trip id="0" depart="4.0" from="ce22" to="ce14" type="standard_car" departLane="random" departSpeed="10" />
    <trip id="1" depart="19.0" from="ce28" to="ce18" type="standard_car" departLane="random" departSpeed="10" />
    <trip id="2" depart="21.0" from="ce30" to="ce18" type="standard_car" departLane="random" departSpeed="10" />
    <trip id="3" depart="26.0" from="ce22" to="ce19" type="standard_car" departLane="random" departSpeed="10" />
    <trip id="4" depart="31.0" from="ce20" to="ce18" type="standard_car" departLane="random" departSpeed="10" />
    <trip id="5" depart="32.0" from="ce22" to="ce27" type="standard_car" departLane="random" departSpeed="10" />
    <trip id="6" depart="35.0" from="ce23" to="ce16" type="standard_car" departLane="random" departSpeed="10" />
    <trip id="7" depart="37.0" from="ce30" to="ce12" type="standard_car" departLane="random" departSpeed="10" />
    <trip id="8" depart="39.0" from="ce22" to="ce18" type="standard_car" departLane="random" departSpeed="10" />
    <trip id="9" depart="54.0" from="ce11" to="ce29" type="standard_car" departLane="random" departSpeed="10" />
    <trip id="10" depart="68.0" from="ce17" to="ce12" type="standard_car" departLane="random" departSpeed="10" />
    <trip id="11" depart="76.0" from="ce20" to="ce16" type="standard_car" departLane="random" departSpeed="10" />
    <trip id="12" depart="85.0" from="ce20" to="ce27" type="standard_car" departLane="random" departSpeed="10" />
    <trip id="13" depart="85.0" from="ce26" to="ce14" type="standard_car" departLane="random" departSpeed="10" />
    <trip id="14" depart="87.0" from="ce22" to="ce27" type="standard_car" departLane="random" departSpeed="10" />
    <trip id="15" depart="90.0" from="ce22" to="ce25" type="standard_car" departLane="random" departSpeed="10" />
    <trip id="16" depart="94.0" from="ce22" to="ce16" type="standard_car" departLane="random" departSpeed="10" />
    <trip id="17" depart="105.0" from="ce23" to="ce21" type="standard_car" departLane="random" departSpeed="10" />
    <trip id="18" depart="116.0" from="ce23" to="ce29" type="standard_car" departLane="random" departSpeed="10" />
    <trip id="19" depart="120.0" from="ce30" to="ce27" type="standard_car" departLane="random" departSpeed="10" />
    <trip id="20" depart="131.0" from="ce30" to="ce29" type="standard_car" departLane="random" departSpeed="10" />
    <trip id="21" depart="135.0" from="ce28" to="ce27" type="standard_car" departLane="random" departSpeed="10" />
    <trip id="22" depart="144.0" from="ce22" to="ce27" type="standard_car" departLane="random" departSpeed="10" />
    <trip id="23" depart="152.0" from="ce22" to="ce16" type="standard_car" departLane="random" departSpeed="10" />
    <trip id="24" depart="165.0" from="ce26" to="ce14" type="standard_car" departLane="random" departSpeed="10" />
    <trip id="25" depart="169.0" from="ce20" to="ce18" type="standard_car" departLane="random" departSpeed="10" />
    <trip id="26" depart="178.0" from="ce13" to="ce12" type="standard_car" departLane="random" departSpeed="10" />
    <trip id="27" depart="179.0" from="ce23" to="ce29" type="standard_car" departLane="random" departSpeed="10" />
    <trip id="28" depart="193.0" from="ce23" to="ce18" type="standard_car" departLane="random" departSpeed="10" />
    <trip id="29" depart="197.0" from="ce30" to="ce24" type="standard_car" departLane="random" departSpeed="10" />
    <trip id="30" depart="197.0" from="ce22" to="ce24" type="standard_car" departLane="random" departSpeed="10" />
    <trip id="31" depart="199.0" from="ce28" to="ce29" type="standard_car" departLane="random" departSpeed="10" />
    <trip id="32" depart="211.0" from="ce30" to="ce14" type="standard_car" departLane="random" departSpeed="10" />
    <trip id="33" depart="215.0" from="ce20" to="ce29" type="standard_car" departLane="random" departSpeed="10" />
    <trip id="34" depart="217.0" from="ce30" to="ce24" type="standard_car" departLane="random" departSpeed="10" />
    <trip id="35" depart="219.0" from="ce22" to="ce18" type="standard_car" departLane="random" departSpeed="10" />
    <trip id="36" depart="237.0" from="ce30" to="ce14" type="standard_car" departLane="random" departSpeed="10" />
    <trip id="37" depart="247.0" from="ce30" to="ce16" type="standard_car" departLane="random" departSpeed="10" />
    <trip id="38" depart="248.0" from="ce23" to="ce12" type="standard_car" departLane="random" departSpeed="10" />
    <trip id="39" depart="248.0" from="ce22" to="ce18" type="standard_car" departLane="random" departSpeed="10" />
    <trip id="40" depart="252.0" from="ce20" to="ce18" type="standard_car" departLane="random" departSpeed="10" />
    <trip id="41" depart="264.0" from="ce22" to="ce12" type="standard_car" departLane="random" departSpeed="10" />
    <trip id="42" depart="286.0" from="ce22" to="ce19" type="standard_car" departLane="random" departSpeed="10" />
    <trip id="43" depart="290.0" from="ce17" to="ce14" type="standard_car" departLane="random" departSpeed="10" />
    <trip id="44" depart="295.0" from="ce30" to="ce18" type="standard_car" departLane="random" departSpeed="10" />
    <trip id="45" depart="296.0" from="ce23" to="ce21" type="standard_car" departLane="random" departSpeed="10" />
    <trip id="46" depart="297.0" from="ce30" to="ce19" type="standard_car" departLane="random" departSpeed="10" />
    <trip id="47" depart="305.0" from="ce23" to="ce12" type="standard_car" departLane="random" departSpeed="10" />
    <trip id="48" depart="315.0" from="ce22" to="ce14" type="standard_car" departLane="random" departSpeed="10" />
    <trip id="49" depart="315.0" from="ce20" to="ce16" type="standard_car" departLane="random" departSpeed="10" />
    <trip id="50" depart="330.0" from="ce20" to="ce24" type="standard_car" departLane="random" departSpeed="10" />
    <trip id="51" depart="336.0" from="ce17" to="ce29" type="standard_car" departLane="random" departSpeed="10" />
    <trip id="52" depart="358.0" from="ce17" to="ce27" type="standard_car" departLane="random" departSpeed="10" />
    <trip id="53" depart="366.0" from="ce23" to="ce25" type="standard_car" departLane="random" departSpeed="10" />
    <trip id="54" depart="370.0" from="ce26" to="ce24" type="standard_car" departLane="random" departSpeed="10" />
    <trip id="55" depart="372.0" from="ce23" to="ce21" type="standard_car" departLane="random" departSpeed="10" />
    <trip id="56" depart="375.0" from="ce11" to="ce16" type="standard_car" departLane="random" departSpeed="10" />
    <trip id="57" depart="381.0" from="ce30" to="ce24" type="standard_car" departLane="random" departSpeed="10" />
    <trip id="58" depart="388.0" from="ce17" to="ce21" type="standard_car" departLane="random" departSpeed="10" />
    <trip id="59" depart="391.0" from="ce13" to="ce19" type="standard_car" departLane="random" departSpeed="10" />
    <trip id="60" depart="392.0" from="ce30" to="ce14" type="standard_car" departLane="random" departSpeed="10" />
    <trip id="61" depart="401.0" from="ce20" to="ce24" type="standard_car" departLane="random" departSpeed="10" />
    <trip id="62" depart="402.0" from="ce23" to="ce19" type="standard_car" departLane="random" departSpeed="10" />
    <trip id="63" depart="410.0" from="ce30" to="ce24" type="standard_car" departLane="random" departSpeed="10" />
    <trip id="64" depart="420.0" from="ce20" to="ce24" type="standard_car" departLane="random" departSpeed="10" />
    <trip id="65" depart="423.0" from="ce13" to="ce29" type="standard_car" departLane="random" departSpeed="10" />
    <trip id="66" depart="432.0" from="ce11" to="ce19" type="standard_car" departLane="random" departSpeed="10" />
    <trip id="67" depart="455.0" from="ce11" to="ce24" type="standard_car" departLane="random" departSpeed="10" />
    <trip id="68" depart="461.0" from="ce11" to="ce24" type="standard_car" departLane="random" departSpeed="10" />
    <trip id="69" depart="472.0" from="ce22" to="ce24" type="standard_car" departLane="random" departSpeed="10" />
    <trip id="70" depart="473.0" from="ce20" to="ce18" type="standard_car" departLane="random" departSpeed="10" />
    <trip id="71" depart="483.0" from="ce22" to="ce21" type="standard_car" departLane="random" departSpeed="10" />
    <trip id="72" depart="485.0" from="ce30" to="ce21" type="standard_car" departLane="random" departSpeed="10" />
    <trip id="73" depart="486.0" from="ce23" to="ce14" type="standard_car" departLane="random" departSpeed="10" />
    <trip id="74" depart="492.0" from="ce30" to="ce24" type="standard_car" departLane="random" departSpeed="10" />
    <trip id="75" depart="494.0" from="ce28" to="ce18" type="standard_car" departLane="random" departSpeed="10" />
    <trip id="76" depart="505.0" from="ce30" to="ce12" type="standard_car" departLane="random" departSpeed="10" />
    <trip id="77" depart="510.0" from="ce23" to="ce29" type="standard_car" departLane="random" departSpeed="10" />
    <trip id="78" depart="522.0" from="ce22" to="ce18" type="standard_car" departLane="random" departSpeed="10" />
    <trip id="79" depart="522.0" from="ce23" to="ce25" type="standard_car" departLane="random" departSpeed="10" />
    <trip id="80" depart="547.0" from="ce23" to="ce16" type="standard_car" departLane="random" departSpeed="10" />
    <trip id="81" depart="549.0" from="ce22" to="ce24" type="standard_car" departLane="random" departSpeed="10" />
    <trip id="82" depart="549.0" from="ce23" to="ce25" type="standard_car" departLane="random" departSpeed="10" />
    <trip id="83" depart="563.0" from="ce23" to="ce21" type="standard_car" departLane="random" departSpeed="10" />
    <trip id="84" depart="586.0" from="ce15" to="ce24" type="standard_car" departLane="random" departSpeed="10" />
    <trip id="85" depart="598.0" from="ce22" to="ce16" type="standard_car" departLane="random" departSpeed="10" />
    <trip id="86" depart="599.0" from="ce30" to="ce25" type="standard_car" departLane="random" departSpeed="10" />
    <trip id="87" depart="605.0" from="ce30" to="ce24" type="standard_car" departLane="random" departSpeed="10" />
    <trip id="88" depart="612.0" from="ce22" to="ce14" type="standard_car" departLane="random" departSpeed="10" />
    <trip id="89" depart="640.0" from="ce17" to="ce21" type="standard_car" departLane="random" departSpeed="10" />
    <trip id="90" depart="653.0" from="ce23" to="ce25" type="standard_car" departLane="random" departSpeed="10" />
    <trip id="91" depart="654.0" from="ce23" to="ce27" type="standard_car" departLane="random" departSpeed="10" />
    <trip id="92" depart="654.0" from="ce22" to="ce24" type="standard_car" departLane="random" departSpeed="10" />
    <trip id="93" depart="660.0" from="ce30" to="ce18" type="standard_car" departLane="random" departSpeed="10" />
    <trip id="94" depart="662.0" from="ce30" to="ce18" type="standard_car" departLane="random" departSpeed="10" />
    <trip id="95" depart="676.0" from="ce17" to="ce27" type="standard_car" departLane="random" departSpeed="10" />
    <trip id="96" depart="681.0" from="ce13" to="ce29" type="standard_car" departLane="random" departSpeed="10" />
    <trip id="97" depart="684.0" from="ce30" to="ce24" type="standard_car" departLane="random" departSpeed="10" />
    <trip id="98" depart="692.0" from="ce13" to="ce24" type="standard_car" departLane="random" departSpeed="10" />
    <trip id="99" depart="712.0" from="ce23" to="ce27" type="standard_car" departLane="random" departSpeed="10" />
    <trip id="100" depart="715.0" from="ce28" to="ce12" type="standard_car" departLane="random" departSpeed="10" />
    <trip id="101" depart="721.0" from="ce30" to="ce18" type="standard_car" departLane="random" departSpeed="10" />
    <trip id="102" depart="723.0" from="ce30" to="ce19" type="standard_car" departLane="random" departSpeed="10" />
    <trip id="103" depart="732.0" from="ce30" to="ce19" type="standard_car" departLane="random" departSpeed="10" />
    <trip id="104" depart="735.0" from="ce23" to="ce14" type="standard_car" departLane="random" departSpeed="10" />
    <trip id="105" depart="735.0" from="ce15" to="ce29" type="standard_car" departLane="random" departSpeed="10" />
    <trip id="106" depart="741.0" from="ce20" to="ce24" type="standard_car" departLane="random" departSpeed="10" />
    <trip id="107" depart="771.0" from="ce17" to="ce18" type="standard_car" departLane="random" departSpeed="10" />
    <trip id="108" depart="772.0" from="ce23" to="ce19" type="standard_car" departLane="random" departSpeed="10" />
    <trip id="109" depart="780.0" from="ce11" to="ce27" type="standard_car" departLane="random" departSpeed="10" />
    <trip id="110" depart="799.0" from="ce20" to="ce18" type="standard_car" departLane="random" departSpeed="10" />
    <trip id="111" depart="802.0" from="ce28" to="ce16" type="standard_car" departLane="random" departSpeed="10" />
    <trip id="112" depart="805.0" from="ce23" to="ce21" type="standard_car" departLane="random" departSpeed="10" />
    <trip id="113" depart="823.0" from="ce20" to="ce29" type="standard_car" departLane="random" departSpeed="10" />
    <trip id="114" depart="840.0" from="ce23" to="ce24" type="standard_car" departLane="random" departSpeed="10" />
    <trip id="115" depart="843.0" from="ce22" to="ce18" type="standard_car" departLane="random" departSpeed="10" />
    <trip id="116" depart="846.0" from="ce23" to="ce27" type="standard_car" departLane="random" departSpeed="10" />
    <trip id="117" depart="869.0" from="ce17" to="ce29" type="standard_car" departLane="random" departSpeed="10" />
    <trip id="118" depart="884.0" from="ce22" to="ce21" type="standard_car" departLane="random" departSpeed="10" />
    <trip id="119" depart="890.0" from="ce11" to="ce18" type="standard_car" departLane="random" departSpeed="10" />
    <trip id="120" depart="896.0" from="ce17" to="ce27" type="standard_car" departLane="random" departSpeed="10" />
    <trip id="121" depart="899.0" from="ce23" to="ce25" type="standard_car" departLane="random" departSpeed="10" />
    <trip id="122" depart="919.0" from="ce30" to="ce19" type="standard_car" departLane="random" departSpeed="10" />
    <trip id="123" depart="920.0" from="ce23" to="ce12" type="standard_car" departLane="random" departSpeed="10" />
    <trip id="124" depart="920.0" from="ce17" to="ce21" type="standard_car" departLane="random" departSpeed="10" />
    <trip id="125" depart="924.0" from="ce22" to="ce24" type="standard_car" departLane="random" departSpeed="10" />
    <trip id="126" depart="936.0" from="ce23" to="ce29" type="standard_car" departLane="random" departSpeed="10" />
    <trip id="127" depart="960.0" from="ce30" to="ce16" type="standard_car" departLane="random" departSpeed="10" />
    <trip id="128" depart="975.0" from="ce22" to="ce16" type="standard_car" departLane="random" departSpeed="10" />
    <trip id="129" depart="977.0" from="ce17" to="ce21" type="standard_car" departLane="random" departSpeed="10" />
    <trip id="130" depart="980.0" from="ce30" to="ce19" type="standard_car" departLane="random" departSpeed="10" />
    <trip id="131" depart="982.0" from="ce30" to="ce16" type="standard_car" departLane="random" departSpeed="10" />
    <trip id="132" depart="1004.0" from="ce22" to="ce18" type="standard_car" departLane="random" departSpeed="10" />
    <trip id="133" depart="1006.0" from="ce30" to="ce29" type="standard_car" departLane="random" departSpeed="10" />
    <trip id="134" depart="1015.0" from="ce28" to="ce19" type="standard_car" departLane="random" departSpeed="10" />
    <trip id="135" depart="1016.0" from="ce30" to="ce24" type="standard_car" departLane="random" departSpeed="10" />
    <trip id="136" depart="1026.0" from="ce23" to="ce18" type="standard_car" departLane="random" departSpeed="10" />
    <trip id="137" depart="1034.0" from="ce17" to="ce25" type="standard_car" departLane="random" departSpeed="10" />
    <trip id="138" depart="1035.0" from="ce17" to="ce14" type="standard_car" departLane="random" departSpeed="10" />
    <trip id="139" depart="1039.0" from="ce23" to="ce14" type="standard_car" departLane="random" departSpeed="10" />
    <trip id="140" depart="1048.0" from="ce23" to="ce14" type="standard_car" departLane="random" departSpeed="10" />
    <trip id="141" depart="1061.0" from="ce22" to="ce29" type="standard_car" departLane="random" departSpeed="10" />
    <trip id="142" depart="1073.0" from="ce23" to="ce16" type="standard_car" departLane="random" departSpeed="10" />
    <trip id="143" depart="1082.0" from="ce22" to="ce12" type="standard_car" departLane="random" departSpeed="10" />
    <trip id="144" depart="1085.0" from="ce23" to="ce12" type="standard_car" departLane="random" departSpeed="10" />
    <trip id="145" depart="1086.0" from="ce22" to="ce27" type="standard_car" departLane="random" departSpeed="10" />
    <trip id="146" depart="1088.0" from="ce26" to="ce29" type="standard_car" departLane="random" departSpeed="10" />
    <trip id="147" depart="1093.0" from="ce17" to="ce21" type="standard_car" departLane="random" departSpeed="10" />
    <trip id="148" depart="1126.0" from="ce30" to="ce29" type="standard_car" departLane="random" departSpeed="10" />
    <trip id="149" depart="1139.0" from="ce17" to="ce16" type="standard_car" departLane="random" departSpeed="10" />
    <trip id="150" depart="1161.0" from="ce23" to="ce25" type="standard_car" departLane="random" departSpeed="10" />
    <trip id="151" depart="1163.0" from="ce17" to="ce12" type="standard_car" departLane="random" departSpeed="10" />
    <trip id="152" depart="1171.0" from="ce30" to="ce25" type="standard_car" departLane="random" departSpeed="10" />
    <trip id="153" depart="1174.0" from="ce20" to="ce24" type="standard_car" departLane="random" departSpeed="10" />
    <trip id="154" depart="1177.0" from="ce20" to="ce14" type="standard_car" departLane="random" departSpeed="10" />
    <trip id="155" depart="1177.0" from="ce20" to="ce16" type="standard_car" departLane="random" departSpeed="10" />
    <trip id="156" depart="1203.0" from="ce17" to="ce18" type="standard_car" departLane="random" departSpeed="10" />
    <trip id="157" depart="1233.0" from="ce23" to="ce12" type="standard_car" departLane="random" departSpeed="10" />
    <trip id="158" depart="1235.0" from="ce23" to="ce12" type="standard_car" departLane="random" departSpeed="10" />
    <trip id="159" depart="1244.0" from="ce22" to="ce25" type="standard_car" departLane="random" departSpeed="10" />
    <trip id="160" depart="1253.0" from="ce22" to="ce25" type="standard_car" departLane="random" departSpeed="10" />
    <trip id="161" depart="1259.0" from="ce30" to="ce12" type="standard_car" departLane="random" departSpeed="10" />
    <trip id="162" depart="1262.0" from="ce17" to="ce27" type="standard_car" departLane="random" departSpeed="10" />
    <trip id="163" depart="1268.0" from="ce11" to="ce27" type="standard_car" departLane="random" departSpeed="10" />
    <trip id="164" depart="1282.0" from="ce17" to="ce25" type="standard_car" departLane="random" departSpeed="10" />
    <trip id="165" depart="1284.0" from="ce17" to="ce24" type="standard_car" departLane="random" departSpeed="10" />
    <trip id="166" depart="1315.0" from="ce26" to="ce24" type="standard_car" departLane="random" departSpeed="10" />
    <trip id="167" depart="1344.0" from="ce22" to="ce18" type="standard_car" departLane="random" departSpeed="10" />
    <trip id="168" depart="1349.0" from="ce26" to="ce24" type="standard_car" departLane="random" departSpeed="10" />
    <trip id="169" depart="1353.0" from="ce23" to="ce21" type="standard_car" departLane="random" departSpeed="10" />
    <trip id="170" depart="1362.0" from="ce30" to="ce27" type="standard_car" departLane="random" departSpeed="10" />
    <trip id="171" depart="1370.0" from="ce23" to="ce18" type="standard_car" departLane="random" departSpeed="10" />
    <trip id="172" depart="1377.0" from="ce20" to="ce29" type="standard_car" departLane="random" departSpeed="10" />
    <trip id="173" depart="1394.0" from="ce30" to="ce18" type="standard_car" departLane="random" departSpeed="10" />
    <trip id="174" depart="1409.0" from="ce22" to="ce27" type="standard_car" departLane="random" departSpeed="10" />
    <trip id="175" depart="1415.0" from="ce23" to="ce19" type="standard_car" departLane="random" departSpeed="10" />
    <trip id="176" depart="1423.0" from="ce23" to="ce16" type="standard_car" departLane="random" departSpeed="10" />
    <trip id="177" depart="1424.0" from="ce23" to="ce19" type="standard_car" departLane="random" departSpeed="10" />
    <trip id="178" depart="1433.0" from="ce22" to="ce14" type="standard_car" departLane="random" departSpeed="10" />
    <trip id="179" depart="1438.0" from="ce30" to="ce19" type="standard_car" departLane="random" departSpeed="10" />
    <trip id="180" depart="1440.0" from="ce20" to="ce12" type="standard_car" departLane="random" departSpeed="10" />
    <trip id="181" depart="1461.0" from="ce22" to="ce12" type="standard_car" departLane="random" departSpeed="10" />
    <trip id="182" depart="1467.0" from="ce22" to="ce18" type="standard_car" departLane="random" departSpeed="10" />
    <trip id="183" depart="1470.0" from="ce30" to="ce24" type="standard_car" departLane="random" departSpeed="10" />
    <trip id="184" depart="1471.0" from="ce20" to="ce19" type="standard_car" departLane="random" departSpeed="10" />
    <trip id="185" depart="1483.0" from="ce23" to="ce21" type="standard_car" departLane="random" departSpeed="10" />
    <trip id="186" depart="1489.0" from="ce23" to="ce21" type="standard_car" departLane="random" departSpeed="10" />
    <trip id="187" depart="1490.0" from="ce26" to="ce24" type="standard_car" departLane="random" departSpeed="10" />
    <trip id="188" depart="1499.0" from="ce23" to="ce14" type="standard_car" departLane="random" departSpeed="10" />
    <trip id="189" depart="1522.0" from="ce22" to="ce19" type="standard_car" departLane="random" departSpeed="10" />
    <trip id="190" depart="1524.0" from="ce22" to="ce18" type="standard_car" departLane="random" departSpeed="10" />
    <trip id="191" depart="1544.0" from="ce17" to="ce29" type="standard_car" departLane="random" departSpeed="10" />
    <trip id="192" depart="1549.0" from="ce28" to="ce21" type="standard_car" departLane="random" departSpeed="10" />
    <trip id="193" depart="1554.0" from="ce22" to="ce25" type="standard_car" departLane="random" departSpeed="10" />
    <trip id="194" depart="1557.0" from="ce17" to="ce21" type="standard_car" departLane="random" departSpeed="10" />
    <trip id="195" depart="1559.0" from="ce22" to="ce27" type="standard_car" departLane="random" departSpeed="10" />
    <trip id="196" depart="1561.0" from="ce30" to="ce21" type="standard_car" departLane="random" departSpeed="10" />
    <trip id="197" depart="1563.0" from="ce20" to="ce24" type="standard_car" departLane="random" departSpeed="10" />
    <trip id="198" depart="1567.0" from="ce28" to="ce14" type="standard_car" departLane="random" departSpeed="10" />
    <trip id="199" depart="1578.0" from="ce30" to="ce21" type="standard_car" departLane="random" departSpeed="10" />
    <trip id="200" depart="1601.0" from="ce17" to="ce14" type="standard_car" departLane="random" departSpeed="10" />
    <trip id="201" depart="1603.0" from="ce28" to="ce24" type="standard_car" departLane="random" departSpeed="10" />
    <trip id="202" depart="1604.0" from="ce26" to="ce18" type="standard_car" departLane="random" departSpeed="10" />
    <trip id="203" depart="1623.0" from="ce26" to="ce18" type="standard_car" departLane="random" departSpeed="10" />
    <trip id="204" depart="1626.0" from="ce20" to="ce16" type="standard_car" departLane="random" departSpeed="10" />
    <trip id="205" depart="1640.0" from="ce13" to="ce18" type="standard_car" departLane="random" departSpeed="10" />
    <trip id="206" depart="1640.0" from="ce22" to="ce16" type="standard_car" departLane="random" departSpeed="10" />
    <trip id="207" depart="1659.0" from="ce23" to="ce12" type="standard_car" departLane="random" departSpeed="10" />
    <trip id="208" depart="1659.0" from="ce11" to="ce29" type="standard_car" departLane="random" departSpeed="10" />
    <trip id="209" depart="1664.0" from="ce17" to="ce29" type="standard_car" departLane="random" departSpeed="10" />
    <trip id="210" depart="1677.0" from="ce22" to="ce24" type="standard_car" departLane="random" departSpeed="10" />
    <trip id="211" depart="1687.0" from="ce20" to="ce24" type="standard_car" departLane="random" departSpeed="10" />
    <trip id="212" depart="1694.0" from="ce23" to="ce21" type="standard_car" departLane="random" departSpeed="10" />
    <trip id="213" depart="1701.0" from="ce30" to="ce29" type="standard_car" departLane="random" departSpeed="10" />
    <trip id="214" depart="1716.0" from="ce30" to="ce24" type="standard_car" departLane="random" departSpeed="10" />
    <trip id="215" depart="1720.0" from="ce30" to="ce27" type="standard_car" departLane="random" departSpeed="10" />
    <trip id="216" depart="1730.0" from="ce23" to="ce12" type="standard_car" departLane="random" departSpeed="10" />
    <trip id="217" depart="1731.0" from="ce22" to="ce25" type="standard_car" departLane="random" departSpeed="10" />
    <trip id="218" depart="1732.0" from="ce15" to="ce25" type="standard_car" departLane="random" departSpeed="10" />
    <trip id="219" depart="1743.0" from="ce20" to="ce29" type="standard_car" departLane="random" departSpeed="10" />
    <trip id="220" depart="1751.0" from="ce17" to="ce18" type="standard_car" departLane="random" departSpeed="10" />
    <trip id="221" depart="1759.0" from="ce17" to="ce21" type="standard_car" departLane="random" departSpeed="10" />
    <trip id="222" depart="1761.0" from="ce17" to="ce27" type="standard_car" departLane="random" departSpeed="10" />
    <trip id="223" depart="1769.0" from="ce17" to="ce19" type="standard_car" departLane="random" departSpeed="10" />
    <trip id="224" depart="1769.0" from="ce22" to="ce19" type="standard_car" departLane="random" departSpeed="10" />
    <trip id="225" depart="1779.0" from="ce15" to="ce29" type="standard_car" departLane="random" departSpeed="10" />
    <trip id="226" depart="1780.0" from="ce17" to="ce16" type="standard_car" departLane="random" departSpeed="10" />
    <trip id="227" depart="1782.0" from="ce22" to="ce18" type="standard_car" departLane="random" departSpeed="10" />
    <trip id="228" depart="1787.0" from="ce30" to="ce27" type="standard_car" departLane="random" departSpeed="10" />
    <trip id="229" depart="1790.0" from="ce17" to="ce25" type="standard_car" departLane="random" departSpeed="10" />
    <trip id="230" depart="1791.0" from="ce22" to="ce27" type="standard_car" departLane="random" departSpeed="10" />
    <trip id="231" depart="1793.0" from="ce23" to="ce14" type="standard_car" departLane="random" departSpeed="10" />
    <trip id="232" depart="1796.0" from="ce30" to="ce29" type="standard_car" departLane="random" departSpeed="10" />
    <trip id="233" depart="1796.0" from="ce30" to="ce14" type="standard_car" departLane="random" departSpeed="10" />
    <trip id="234" depart="1796.0" from="ce28" to="ce29" type="standard_car" departLane="random" departSpeed="10" />
    <trip id="235" depart="1798.0" from="ce30" to="ce14" type="standard_car" departLane="random" departSpeed="10" />
    <trip id="236" depart="1803.0" from="ce11" to="ce25" type="standard_car" departLane="random" departSpeed="10" />
    <trip id="237" depart="1804.0" from="ce30" to="ce18" type="standard_car" departLane="random" departSpeed="10" />
    <trip id="238" depart="1807.0" from="ce23" to="ce14" type="standard_car" departLane="random" departSpeed="10" />
    <trip id="239" depart="1825.0" from="ce13" to="ce24" type="standard_car" departLane="random" departSpeed="10" />
    <trip id="240" depart="1827.0" from="ce30" to="ce27" type="standard_car" departLane="random" departSpeed="10" />
    <trip id="241" depart="1834.0" from="ce22" to="ce24" type="standard_car" departLane="random" departSpeed="10" />
    <trip id="242" depart="1842.0" from="ce23" to="ce21" type="standard_car" departLane="random" departSpeed="10" />
    <trip id="243" depart="1842.0" from="ce28" to="ce21" type="standard_car" departLane="random" departSpeed="10" />
    <trip id="244" depart="1858.0" from="ce17" to="ce16" type="standard_car" departLane="random" departSpeed="10" />
    <trip id="245" depart="1866.0" from="ce17" to="ce27" type="standard_car" departLane="random" departSpeed="10" />
    <trip id="246" depart="1867.0" from="ce30" to="ce27" type="standard_car" departLane="random" departSpeed="10" />
    <trip id="247" depart="1871.0" from="ce26" to="ce14" type="standard_car" departLane="random" departSpeed="10" />
    <trip id="248" depart="1877.0" from="ce28" to="ce16" type="standard_car" departLane="random" departSpeed="10" />
    <trip id="249" depart="1878.0" from="ce30" to="ce24" type="standard_car" departLane="random" departSpeed="10" />
    <trip id="250" depart="1882.0" from="ce26" to="ce21" type="standard_car" departLane="random" departSpeed="10" />
    <trip id="251" depart="1888.0" from="ce17" to="ce29" type="standard_car" departLane="random" departSpeed="10" />
    <trip id="252" depart="1895.0" from="ce15" to="ce25" type="standard_car" departLane="random" departSpeed="10" />
    <trip id="253" depart="1898.0" from="ce23" to="ce27" type="standard_car" departLane="random" departSpeed="10" />
    <trip id="254" depart="1908.0" from="ce17" to="ce27" type="standard_car" departLane="random" departSpeed="10" />
    <trip id="255" depart="1912.0" from="ce26" to="ce24" type="standard_car" departLane="random" departSpeed="10" />
    <trip id="256" depart="1912.0" from="ce17" to="ce24" type="standard_car" departLane="random" departSpeed="10" />