<?xml version="1.0" encoding="UTF-8"?>

<!-- generated on 2022-02-20 22:33:46 by Eclipse SUMO netconvert Version 1.10.0
<configuration xmlns:xsi="http://www.w3.org/2001/XMLSchema-instance" xsi:noNamespaceSchemaLocation="http://sumo.dlr.de/xsd/netconvertConfiguration.xsd">

    <input>
        <node-files value="intersection/models_ppofix_v3/model_1/Ingolstadt_2_Nodes.nod.xml"/>
        <edge-files value="intersection/models_ppofix_v3/model_1/Ingolstadt_1_Edges.edg.xml"/>
        <connection-files value="intersection/models_ppofix_v3/model_1/Ingolstadt_14_Connections.con.xml"/>
        <tllogic-files value="intersection/models_ppofix_v3/model_1/Ingolstadt_2_TrafficLights.tll.xml"/>
    </input>

    <output>
        <output-file value="intersection/models_ppofix_v3/model_1/environment.net.xml"/>
    </output>

    <report>
        <aggregate-warnings value="5"/>
    </report>

</configuration>
-->

<net version="1.9" junctionCornerDetail="5" limitTurnSpeed="5.50" xmlns:xsi="http://www.w3.org/2001/XMLSchema-instance" xsi:noNamespaceSchemaLocation="http://sumo.dlr.de/xsd/net_file.xsd">

    <location netOffset="-62.50,-62.50" convBoundary="0.00,0.00,375.00,625.00" origBoundary="62.50,62.50,437.50,687.50" projParameter="!"/>

    <edge id=":1_0" function="internal">
        <lane id=":1_0_0" index="0" speed="6.51" length="9.03" shape="176.30,204.30 175.95,201.85 174.90,200.10 173.15,199.05 170.70,198.70"/>
    </edge>
    <edge id=":1_1" function="internal">
        <lane id=":1_1_0" index="0" speed="13.90" length="33.60" shape="176.30,204.30 176.30,170.70"/>
        <lane id=":1_1_1" index="1" speed="13.90" length="33.60" shape="179.50,204.30 179.50,170.70"/>
        <lane id=":1_1_2" index="2" speed="13.90" length="33.60" shape="182.70,204.30 182.70,170.70"/>
    </edge>
    <edge id=":1_4" function="internal">
        <lane id=":1_4_0" index="0" speed="11.36" length="29.67" shape="185.90,204.30 187.05,196.25 190.50,190.50 196.25,187.05 204.30,185.90"/>
    </edge>
    <edge id=":1_5" function="internal">
        <lane id=":1_5_0" index="0" speed="6.51" length="9.03" shape="204.30,198.70 201.85,199.05 200.10,200.10 199.05,201.85 198.70,204.30"/>
    </edge>
    <edge id=":1_6" function="internal">
        <lane id=":1_6_0" index="0" speed="13.90" length="33.60" shape="204.30,198.70 170.70,198.70"/>
        <lane id=":1_6_1" index="1" speed="13.90" length="33.60" shape="204.30,195.50 170.70,195.50"/>
        <lane id=":1_6_2" index="2" speed="13.90" length="33.60" shape="204.30,192.30 170.70,192.30"/>
    </edge>
    <edge id=":1_9" function="internal">
        <lane id=":1_9_0" index="0" speed="11.36" length="29.67" shape="204.30,189.10 196.25,187.95 190.50,184.50 187.05,178.75 185.90,170.70"/>
    </edge>
    <edge id=":1_10" function="internal">
        <lane id=":1_10_0" index="0" speed="6.51" length="9.03" shape="198.70,170.70 199.05,173.15 200.10,174.90 201.85,175.95 204.30,176.30"/>
    </edge>
    <edge id=":1_11" function="internal">
        <lane id=":1_11_0" index="0" speed="13.90" length="33.60" shape="198.70,170.70 198.70,204.30"/>
        <lane id=":1_11_1" index="1" speed="13.90" length="33.60" shape="195.50,170.70 195.50,204.30"/>
        <lane id=":1_11_2" index="2" speed="13.90" length="33.60" shape="192.30,170.70 192.30,204.30"/>
    </edge>
    <edge id=":1_14" function="internal">
        <lane id=":1_14_0" index="0" speed="11.36" length="29.67" shape="189.10,170.70 187.95,178.75 184.50,184.50 178.75,187.95 170.70,189.10"/>
    </edge>
    <edge id=":1_15" function="internal">
        <lane id=":1_15_0" index="0" speed="6.51" length="9.03" shape="170.70,176.30 173.15,175.95 174.90,174.90 175.95,173.15 176.30,170.70"/>
    </edge>
    <edge id=":1_16" function="internal">
        <lane id=":1_16_0" index="0" speed="13.90" length="33.60" shape="170.70,176.30 204.30,176.30"/>
        <lane id=":1_16_1" index="1" speed="13.90" length="33.60" shape="170.70,179.50 204.30,179.50"/>
        <lane id=":1_16_2" index="2" speed="13.90" length="33.60" shape="170.70,182.70 204.30,182.70"/>
    </edge>
    <edge id=":1_19" function="internal">
        <lane id=":1_19_0" index="0" speed="11.36" length="29.67" shape="170.70,185.90 178.75,187.05 184.50,190.50 187.95,196.25 189.10,204.30"/>
    </edge>
    <edge id=":2_0" function="internal">
        <lane id=":2_0_0" index="0" speed="6.51" length="9.03" shape="176.30,454.30 175.95,451.85 174.90,450.10 173.15,449.05 170.70,448.70"/>
    </edge>
    <edge id=":2_1" function="internal">
        <lane id=":2_1_0" index="0" speed="13.90" length="33.60" shape="176.30,454.30 176.30,420.70"/>
        <lane id=":2_1_1" index="1" speed="13.90" length="33.60" shape="179.50,454.30 179.50,420.70"/>
        <lane id=":2_1_2" index="2" speed="13.90" length="33.60" shape="182.70,454.30 182.70,420.70"/>
    </edge>
    <edge id=":2_4" function="internal">
        <lane id=":2_4_0" index="0" speed="11.36" length="29.67" shape="185.90,454.30 187.05,446.25 190.50,440.50 196.25,437.05 204.30,435.90"/>
    </edge>
    <edge id=":2_5" function="internal">
        <lane id=":2_5_0" index="0" speed="6.51" length="9.03" shape="204.30,448.70 201.85,449.05 200.10,450.10 199.05,451.85 198.70,454.30"/>
    </edge>
    <edge id=":2_6" function="internal">
        <lane id=":2_6_0" index="0" speed="13.90" length="33.60" shape="204.30,448.70 170.70,448.70"/>
        <lane id=":2_6_1" index="1" speed="13.90" length="33.60" shape="204.30,445.50 170.70,445.50"/>
        <lane id=":2_6_2" index="2" speed="13.90" length="33.60" shape="204.30,442.30 170.70,442.30"/>
    </edge>
    <edge id=":2_9" function="internal">
        <lane id=":2_9_0" index="0" speed="11.36" length="29.67" shape="204.30,439.10 196.25,437.95 190.50,434.50 187.05,428.75 185.90,420.70"/>
    </edge>
    <edge id=":2_10" function="internal">
        <lane id=":2_10_0" index="0" speed="6.51" length="9.03" shape="198.70,420.70 199.05,423.15 200.10,424.90 201.85,425.95 204.30,426.30"/>
    </edge>
    <edge id=":2_11" function="internal">
        <lane id=":2_11_0" index="0" speed="13.90" length="33.60" shape="198.70,420.70 198.70,454.30"/>
        <lane id=":2_11_1" index="1" speed="13.90" length="33.60" shape="195.50,420.70 195.50,454.30"/>
        <lane id=":2_11_2" index="2" speed="13.90" length="33.60" shape="192.30,420.70 192.30,454.30"/>
    </edge>
    <edge id=":2_14" function="internal">
        <lane id=":2_14_0" index="0" speed="11.36" length="29.67" shape="189.10,420.70 187.95,428.75 184.50,434.50 178.75,437.95 170.70,439.10"/>
    </edge>
    <edge id=":2_15" function="internal">
        <lane id=":2_15_0" index="0" speed="6.51" length="9.03" shape="170.70,426.30 173.15,425.95 174.90,424.90 175.95,423.15 176.30,420.70"/>
    </edge>
    <edge id=":2_16" function="internal">
        <lane id=":2_16_0" index="0" speed="13.90" length="33.60" shape="170.70,426.30 204.30,426.30"/>
        <lane id=":2_16_1" index="1" speed="13.90" length="33.60" shape="170.70,429.50 204.30,429.50"/>
        <lane id=":2_16_2" index="2" speed="13.90" length="33.60" shape="170.70,432.70 204.30,432.70"/>
    </edge>
    <edge id=":2_19" function="internal">
        <lane id=":2_19_0" index="0" speed="11.36" length="29.67" shape="170.70,435.90 178.75,437.05 184.50,440.50 187.95,446.25 189.10,454.30"/>
    </edge>
    <edge id=":c3_0" function="internal">
        <lane id=":c3_0_0" index="0" speed="3.65" length="4.67" shape="0.00,189.10 -1.20,188.30 -1.60,187.50 -1.20,186.70 0.00,185.90"/>
    </edge>
    <edge id=":c4_0" function="internal">
        <lane id=":c4_0_0" index="0" speed="3.65" length="4.67" shape="0.00,439.10 -1.20,438.30 -1.60,437.50 -1.20,436.70 0.00,435.90"/>
    </edge>
    <edge id=":c5_0" function="internal">
        <lane id=":c5_0_0" index="0" speed="3.65" length="4.67" shape="185.90,0.00 186.70,-1.20 187.50,-1.60 188.30,-1.20 189.10,0.00"/>
    </edge>
    <edge id=":c6_0" function="internal">
        <lane id=":c6_0_0" index="0" speed="3.65" length="4.67" shape="189.10,625.00 188.30,626.20 187.50,626.60 186.70,626.20 185.90,625.00"/>
    </edge>
    <edge id=":c7_0" function="internal">
        <lane id=":c7_0_0" index="0" speed="3.65" length="4.67" shape="375.00,185.90 376.20,186.70 376.60,187.50 376.20,188.30 375.00,189.10"/>
    </edge>
    <edge id=":c8_0" function="internal">
        <lane id=":c8_0_0" index="0" speed="3.65" length="4.67" shape="375.00,435.90 376.20,436.70 376.60,437.50 376.20,438.30 375.00,439.10"/>
    </edge>

    <edge id="ce10" from="c7" to="1" priority="-1">
        <lane id="ce10_0" index="0" speed="13.90" length="170.70" shape="375.00,198.70 204.30,198.70"/>
        <lane id="ce10_1" index="1" speed="13.90" length="170.70" shape="375.00,195.50 204.30,195.50"/>
        <lane id="ce10_2" index="2" speed="13.90" length="170.70" shape="375.00,192.30 204.30,192.30"/>
        <lane id="ce10_3" index="3" speed="13.90" length="170.70" shape="375.00,189.10 204.30,189.10"/>
    </edge>
    <edge id="ce11" from="2" to="c8" priority="-1">
        <lane id="ce11_0" index="0" speed="13.90" length="170.70" shape="204.30,426.30 375.00,426.30"/>
        <lane id="ce11_1" index="1" speed="13.90" length="170.70" shape="204.30,429.50 375.00,429.50"/>
        <lane id="ce11_2" index="2" speed="13.90" length="170.70" shape="204.30,432.70 375.00,432.70"/>
        <lane id="ce11_3" index="3" speed="13.90" length="170.70" shape="204.30,435.90 375.00,435.90"/>
    </edge>
    <edge id="ce12" from="c8" to="2" priority="-1">
        <lane id="ce12_0" index="0" speed="13.90" length="170.70" shape="375.00,448.70 204.30,448.70"/>
        <lane id="ce12_1" index="1" speed="13.90" length="170.70" shape="375.00,445.50 204.30,445.50"/>
        <lane id="ce12_2" index="2" speed="13.90" length="170.70" shape="375.00,442.30 204.30,442.30"/>
        <lane id="ce12_3" index="3" speed="13.90" length="170.70" shape="375.00,439.10 204.30,439.10"/>
    </edge>
    <edge id="ce13" from="2" to="c6" priority="-1">
        <lane id="ce13_0" index="0" speed="13.90" length="170.70" shape="198.70,454.30 198.70,625.00"/>
        <lane id="ce13_1" index="1" speed="13.90" length="170.70" shape="195.50,454.30 195.50,625.00"/>
        <lane id="ce13_2" index="2" speed="13.90" length="170.70" shape="192.30,454.30 192.30,625.00"/>
        <lane id="ce13_3" index="3" speed="13.90" length="170.70" shape="189.10,454.30 189.10,625.00"/>
    </edge>
    <edge id="ce14" from="c6" to="2" priority="-1">
        <lane id="ce14_0" index="0" speed="13.90" length="170.70" shape="176.30,625.00 176.30,454.30"/>
        <lane id="ce14_1" index="1" speed="13.90" length="170.70" shape="179.50,625.00 179.50,454.30"/>
        <lane id="ce14_2" index="2" speed="13.90" length="170.70" shape="182.70,625.00 182.70,454.30"/>
        <lane id="ce14_3" index="3" speed="13.90" length="170.70" shape="185.90,625.00 185.90,454.30"/>
    </edge>
    <edge id="ce3" from="c3" to="1" priority="-1">
        <lane id="ce3_0" index="0" speed="13.90" length="170.70" shape="0.00,176.30 170.70,176.30"/>
        <lane id="ce3_1" index="1" speed="13.90" length="170.70" shape="0.00,179.50 170.70,179.50"/>
        <lane id="ce3_2" index="2" speed="13.90" length="170.70" shape="0.00,182.70 170.70,182.70"/>
        <lane id="ce3_3" index="3" speed="13.90" length="170.70" shape="0.00,185.90 170.70,185.90"/>
    </edge>
    <edge id="ce4" from="1" to="c3" priority="-1">
        <lane id="ce4_0" index="0" speed="13.90" length="170.70" shape="170.70,198.70 0.00,198.70"/>
        <lane id="ce4_1" index="1" speed="13.90" length="170.70" shape="170.70,195.50 0.00,195.50"/>
        <lane id="ce4_2" index="2" speed="13.90" length="170.70" shape="170.70,192.30 0.00,192.30"/>
        <lane id="ce4_3" index="3" speed="13.90" length="170.70" shape="170.70,189.10 0.00,189.10"/>
    </edge>
    <edge id="ce5" from="c4" to="2" priority="-1">
        <lane id="ce5_0" index="0" speed="13.90" length="170.70" shape="0.00,426.30 170.70,426.30"/>
        <lane id="ce5_1" index="1" speed="13.90" length="170.70" shape="0.00,429.50 170.70,429.50"/>
        <lane id="ce5_2" index="2" speed="13.90" length="170.70" shape="0.00,432.70 170.70,432.70"/>
        <lane id="ce5_3" index="3" speed="13.90" length="170.70" shape="0.00,435.90 170.70,435.90"/>
    </edge>
    <edge id="ce6" from="2" to="c4" priority="-1">
        <lane id="ce6_0" index="0" speed="13.90" length="170.70" shape="170.70,448.70 0.00,448.70"/>
        <lane id="ce6_1" index="1" speed="13.90" length="170.70" shape="170.70,445.50 0.00,445.50"/>
        <lane id="ce6_2" index="2" speed="13.90" length="170.70" shape="170.70,442.30 0.00,442.30"/>
        <lane id="ce6_3" index="3" speed="13.90" length="170.70" shape="170.70,439.10 0.00,439.10"/>
    </edge>
    <edge id="ce7" from="c5" to="1" priority="-1">
        <lane id="ce7_0" index="0" speed="13.90" length="170.70" shape="198.70,0.00 198.70,170.70"/>
        <lane id="ce7_1" index="1" speed="13.90" length="170.70" shape="195.50,0.00 195.50,170.70"/>
        <lane id="ce7_2" index="2" speed="13.90" length="170.70" shape="192.30,0.00 192.30,170.70"/>
        <lane id="ce7_3" index="3" speed="13.90" length="170.70" shape="189.10,0.00 189.10,170.70"/>
    </edge>
    <edge id="ce8" from="1" to="c5" priority="-1">
        <lane id="ce8_0" index="0" speed="13.90" length="170.70" shape="176.30,170.70 176.30,0.00"/>
        <lane id="ce8_1" index="1" speed="13.90" length="170.70" shape="179.50,170.70 179.50,0.00"/>
        <lane id="ce8_2" index="2" speed="13.90" length="170.70" shape="182.70,170.70 182.70,0.00"/>
        <lane id="ce8_3" index="3" speed="13.90" length="170.70" shape="185.90,170.70 185.90,0.00"/>
    </edge>
    <edge id="ce9" from="1" to="c7" priority="-1">
        <lane id="ce9_0" index="0" speed="13.90" length="170.70" shape="204.30,176.30 375.00,176.30"/>
        <lane id="ce9_1" index="1" speed="13.90" length="170.70" shape="204.30,179.50 375.00,179.50"/>
        <lane id="ce9_2" index="2" speed="13.90" length="170.70" shape="204.30,182.70 375.00,182.70"/>
        <lane id="ce9_3" index="3" speed="13.90" length="170.70" shape="204.30,185.90 375.00,185.90"/>
    </edge>
    <edge id="e1" from="1" to="2" priority="-1">
        <lane id="e1_0" index="0" speed="13.90" length="216.40" shape="198.70,204.30 198.70,420.70"/>
        <lane id="e1_1" index="1" speed="13.90" length="216.40" shape="195.50,204.30 195.50,420.70"/>
        <lane id="e1_2" index="2" speed="13.90" length="216.40" shape="192.30,204.30 192.30,420.70"/>
        <lane id="e1_3" index="3" speed="13.90" length="216.40" shape="189.10,204.30 189.10,420.70"/>
    </edge>
    <edge id="e2" from="2" to="1" priority="-1">
        <lane id="e2_0" index="0" speed="13.90" length="216.40" shape="176.30,420.70 176.30,204.30"/>
        <lane id="e2_1" index="1" speed="13.90" length="216.40" shape="179.50,420.70 179.50,204.30"/>
        <lane id="e2_2" index="2" speed="13.90" length="216.40" shape="182.70,420.70 182.70,204.30"/>
        <lane id="e2_3" index="3" speed="13.90" length="216.40" shape="185.90,420.70 185.90,204.30"/>
    </edge>

    <tlLogic id="TL1" type="static" programID="0" offset="0">
        <phase duration="100" state="GGGGrrrrrrGGGGrrrrrr"/>
        <phase duration="100" state="yyyyrrrrrryyyyrrrrrr"/>
        <phase duration="100" state="rrrrrrrrrrrrrrrrrrrr"/>
        <phase duration="100" state="rrrrGrrrrrrrrrGrrrrr"/>
        <phase duration="100" state="rrrryrrrrrrrrryrrrrr"/>
        <phase duration="100" state="rrrrrrrrrrrrrrrrrrrr"/>
        <phase duration="100" state="rrrrrGGGGrrrrrrGGGGr"/>
        <phase duration="100" state="rrrrryyyyrrrrrryyyyr"/>
        <phase duration="100" state="rrrrrrrrrrrrrrrrrrrr"/>
        <phase duration="100" state="rrrrrrrrrGrrrrrrrrrG"/>
        <phase duration="100" state="rrrrrrrrryrrrrrrrrry"/>
        <phase duration="100" state="rrrrrrrrrrrrrrrrrrrr"/>
        <phase duration="100" state="GGGGGrrrrrrrrrrrrrrr"/>
        <phase duration="100" state="yyyyyrrrrrrrrrrrrrrr"/>
        <phase duration="100" state="rrrrrrrrrrrrrrrrrrrr"/>
        <phase duration="100" state="rrrrrGGGGGrrrrrrrrrr"/>
        <phase duration="100" state="rrrrryyyyyrrrrrrrrrr"/>
        <phase duration="100" state="rrrrrrrrrrrrrrrrrrrr"/>
        <phase duration="100" state="rrrrrrrrrrGGGGGrrrrr"/>
        <phase duration="100" state="rrrrrrrrrryyyyyrrrrr"/>
        <phase duration="100" state="rrrrrrrrrrrrrrrrrrrr"/>
        <phase duration="100" state="rrrrrrrrrrrrrrrGGGGG"/>
        <phase duration="100" state="rrrrrrrrrrrrrrryyyyy"/>
        <phase duration="100" state="rrrrrrrrrrrrrrrrrrrr"/>
    </tlLogic>
    <tlLogic id="TL2" type="static" programID="0" offset="0">
        <phase duration="100" state="GGGGrrrrrrGGGGrrrrrr"/>
        <phase duration="100" state="yyyyrrrrrryyyyrrrrrr"/>
        <phase duration="100" state="rrrrrrrrrrrrrrrrrrrr"/>
        <phase duration="100" state="rrrrGrrrrrrrrrGrrrrr"/>
        <phase duration="100" state="rrrryrrrrrrrrryrrrrr"/>
        <phase duration="100" state="rrrrrrrrrrrrrrrrrrrr"/>
        <phase duration="100" state="rrrrrGGGGrrrrrrGGGGr"/>
        <phase duration="100" state="rrrrryyyyrrrrrryyyyr"/>
        <phase duration="100" state="rrrrrrrrrrrrrrrrrrrr"/>
        <phase duration="100" state="rrrrrrrrrGrrrrrrrrrG"/>
        <phase duration="100" state="rrrrrrrrryrrrrrrrrry"/>
        <phase duration="100" state="rrrrrrrrrrrrrrrrrrrr"/>
        <phase duration="100" state="GGGGGrrrrrrrrrrrrrrr"/>
        <phase duration="100" state="yyyyyrrrrrrrrrrrrrrr"/>
        <phase duration="100" state="rrrrrrrrrrrrrrrrrrrr"/>
        <phase duration="100" state="rrrrrGGGGGrrrrrrrrrr"/>
        <phase duration="100" state="rrrrryyyyyrrrrrrrrrr"/>
        <phase duration="100" state="rrrrrrrrrrrrrrrrrrrr"/>
        <phase duration="100" state="rrrrrrrrrrGGGGGrrrrr"/>
        <phase duration="100" state="rrrrrrrrrryyyyyrrrrr"/>
        <phase duration="100" state="rrrrrrrrrrrrrrrrrrrr"/>
        <phase duration="100" state="rrrrrrrrrrrrrrrGGGGG"/>
        <phase duration="100" state="rrrrrrrrrrrrrrryyyyy"/>
        <phase duration="100" state="rrrrrrrrrrrrrrrrrrrr"/>
    </tlLogic>

    <junction id="1" type="traffic_light" x="187.50" y="187.50" incLanes="e2_0 e2_1 e2_2 e2_3 ce10_0 ce10_1 ce10_2 ce10_3 ce7_0 ce7_1 ce7_2 ce7_3 ce3_0 ce3_1 ce3_2 ce3_3" intLanes=":1_0_0 :1_1_0 :1_1_1 :1_1_2 :1_4_0 :1_5_0 :1_6_0 :1_6_1 :1_6_2 :1_9_0 :1_10_0 :1_11_0 :1_11_1 :1_11_2 :1_14_0 :1_15_0 :1_16_0 :1_16_1 :1_16_2 :1_19_0" shape="174.70,204.30 200.30,204.30 200.74,202.08 201.30,201.30 202.08,200.74 203.08,200.41 204.30,200.30 204.30,174.70 202.08,174.26 201.30,173.70 200.74,172.92 200.41,171.92 200.30,170.70 174.70,170.70 174.26,172.92 173.70,173.70 172.92,174.26 171.92,174.59 170.70,174.70 170.70,200.30 172.92,200.74 173.70,201.30 174.26,202.08 174.59,203.08">
        <request index="0"  response="00000000000000000000" foes="00000000000111000000" cont="0"/>
        <request index="1"  response="00000000000000000000" foes="11111100000111000000" cont="0"/>
        <request index="2"  response="00000000000000000000" foes="11111100000111000000" cont="0"/>
        <request index="3"  response="00000000000000000000" foes="11111100000111000000" cont="0"/>
        <request index="4"  response="00000011100000000000" foes="10000011101111000000" cont="0"/>
        <request index="5"  response="00000011100000000000" foes="00000011100000000000" cont="0"/>
        <request index="6"  response="00000011100000011111" foes="10000011100000011111" cont="0"/>
        <request index="7"  response="00000011100000011111" foes="10000011100000011111" cont="0"/>
        <request index="8"  response="00000011100000011111" foes="10000011100000011111" cont="0"/>
        <request index="9"  response="01110111100000010000" foes="01110111100000010000" cont="0"/>
        <request index="10" response="00000000000000000000" foes="01110000000000000000" cont="0"/>
        <request index="11" response="00000000000000000000" foes="01110000001111110000" cont="0"/>
        <request index="12" response="00000000000000000000" foes="01110000001111110000" cont="0"/>
        <request index="13" response="00000000000000000000" foes="01110000001111110000" cont="0"/>
        <request index="14" response="00000000000000001110" foes="11110000001000001110" cont="0"/>
        <request index="15" response="00000000000000001110" foes="00000000000000001110" cont="0"/>
        <request index="16" response="00000111110000001110" foes="00000111111000001110" cont="0"/>
        <request index="17" response="00000111110000001110" foes="00000111111000001110" cont="0"/>
        <request index="18" response="00000111110000001110" foes="00000111111000001110" cont="0"/>
        <request index="19" response="00000100000111011110" foes="00000100000111011110" cont="0"/>
    </junction>
    <junction id="2" type="traffic_light" x="187.50" y="437.50" incLanes="ce14_0 ce14_1 ce14_2 ce14_3 ce12_0 ce12_1 ce12_2 ce12_3 e1_0 e1_1 e1_2 e1_3 ce5_0 ce5_1 ce5_2 ce5_3" intLanes=":2_0_0 :2_1_0 :2_1_1 :2_1_2 :2_4_0 :2_5_0 :2_6_0 :2_6_1 :2_6_2 :2_9_0 :2_10_0 :2_11_0 :2_11_1 :2_11_2 :2_14_0 :2_15_0 :2_16_0 :2_16_1 :2_16_2 :2_19_0" shape="174.70,454.30 200.30,454.30 200.74,452.08 201.30,451.30 202.08,450.74 203.08,450.41 204.30,450.30 204.30,424.70 202.08,424.26 201.30,423.70 200.74,422.92 200.41,421.92 200.30,420.70 174.70,420.70 174.26,422.92 173.70,423.70 172.92,424.26 171.92,424.59 170.70,424.70 170.70,450.30 172.92,450.74 173.70,451.30 174.26,452.08 174.59,453.08">
        <request index="0"  response="00000000000000000000" foes="00000000000111000000" cont="0"/>
        <request index="1"  response="00000000000000000000" foes="11111100000111000000" cont="0"/>
        <request index="2"  response="00000000000000000000" foes="11111100000111000000" cont="0"/>
        <request index="3"  response="00000000000000000000" foes="11111100000111000000" cont="0"/>
        <request index="4"  response="00000011100000000000" foes="10000011101111000000" cont="0"/>
        <request index="5"  response="00000011100000000000" foes="00000011100000000000" cont="0"/>
        <request index="6"  response="00000011100000011111" foes="10000011100000011111" cont="0"/>
        <request index="7"  response="00000011100000011111" foes="10000011100000011111" cont="0"/>
        <request index="8"  response="00000011100000011111" foes="10000011100000011111" cont="0"/>
        <request index="9"  response="01110111100000010000" foes="01110111100000010000" cont="0"/>
        <request index="10" response="00000000000000000000" foes="01110000000000000000" cont="0"/>
        <request index="11" response="00000000000000000000" foes="01110000001111110000" cont="0"/>
        <request index="12" response="00000000000000000000" foes="01110000001111110000" cont="0"/>
        <request index="13" response="00000000000000000000" foes="01110000001111110000" cont="0"/>
        <request index="14" response="00000000000000001110" foes="11110000001000001110" cont="0"/>
        <request index="15" response="00000000000000001110" foes="00000000000000001110" cont="0"/>
        <request index="16" response="00000111110000001110" foes="00000111111000001110" cont="0"/>
        <request index="17" response="00000111110000001110" foes="00000111111000001110" cont="0"/>
        <request index="18" response="00000111110000001110" foes="00000111111000001110" cont="0"/>
        <request index="19" response="00000100000111011110" foes="00000100000111011110" cont="0"/>
    </junction>
    <junction id="c3" type="unregulated" x="0.00" y="187.50" incLanes="ce4_0 ce4_1 ce4_2 ce4_3" intLanes=":c3_0_0" shape="0.00,187.50 0.00,200.30 0.00,187.50"/>
    <junction id="c4" type="unregulated" x="0.00" y="437.50" incLanes="ce6_0 ce6_1 ce6_2 ce6_3" intLanes=":c4_0_0" shape="0.00,437.50 0.00,450.30 0.00,437.50"/>
    <junction id="c5" type="unregulated" x="187.50" y="0.00" incLanes="ce8_0 ce8_1 ce8_2 ce8_3" intLanes=":c5_0_0" shape="187.50,0.00 174.70,0.00 187.50,0.00"/>
    <junction id="c6" type="unregulated" x="187.50" y="625.00" incLanes="ce13_0 ce13_1 ce13_2 ce13_3" intLanes=":c6_0_0" shape="187.50,625.00 200.30,625.00 187.50,625.00"/>
    <junction id="c7" type="unregulated" x="375.00" y="187.50" incLanes="ce9_0 ce9_1 ce9_2 ce9_3" intLanes=":c7_0_0" shape="375.00,187.50 375.00,174.70 375.00,187.50"/>
    <junction id="c8" type="unregulated" x="375.00" y="437.50" incLanes="ce11_0 ce11_1 ce11_2 ce11_3" intLanes=":c8_0_0" shape="375.00,437.50 375.00,424.70 375.00,437.50"/>

    <connection from="ce10" to="e1" fromLane="0" toLane="0" via=":1_5_0" tl="TL1" linkIndex="5" dir="r" state="o"/>
    <connection from="ce10" to="ce4" fromLane="0" toLane="0" via=":1_6_0" tl="TL1" linkIndex="6" dir="s" state="o"/>
    <connection from="ce10" to="ce4" fromLane="1" toLane="1" via=":1_6_1" tl="TL1" linkIndex="7" dir="s" state="o"/>
    <connection from="ce10" to="ce4" fromLane="2" toLane="2" via=":1_6_2" tl="TL1" linkIndex="8" dir="s" state="o"/>
    <connection from="ce10" to="ce8" fromLane="3" toLane="3" via=":1_9_0" tl="TL1" linkIndex="9" dir="l" state="o"/>
    <connection from="ce11" to="ce12" fromLane="3" toLane="3" via=":c8_0_0" dir="t" state="M"/>
    <connection from="ce12" to="ce13" fromLane="0" toLane="0" via=":2_5_0" tl="TL2" linkIndex="5" dir="r" state="o"/>
    <connection from="ce12" to="ce6" fromLane="0" toLane="0" via=":2_6_0" tl="TL2" linkIndex="6" dir="s" state="o"/>
    <connection from="ce12" to="ce6" fromLane="1" toLane="1" via=":2_6_1" tl="TL2" linkIndex="7" dir="s" state="o"/>
    <connection from="ce12" to="ce6" fromLane="2" toLane="2" via=":2_6_2" tl="TL2" linkIndex="8" dir="s" state="o"/>
    <connection from="ce12" to="e2" fromLane="3" toLane="3" via=":2_9_0" tl="TL2" linkIndex="9" dir="l" state="o"/>
    <connection from="ce13" to="ce14" fromLane="3" toLane="3" via=":c6_0_0" dir="t" state="M"/>
    <connection from="ce14" to="ce6" fromLane="0" toLane="0" via=":2_0_0" tl="TL2" linkIndex="0" dir="r" state="O"/>
    <connection from="ce14" to="e2" fromLane="0" toLane="0" via=":2_1_0" tl="TL2" linkIndex="1" dir="s" state="O"/>
    <connection from="ce14" to="e2" fromLane="1" toLane="1" via=":2_1_1" tl="TL2" linkIndex="2" dir="s" state="O"/>
    <connection from="ce14" to="e2" fromLane="2" toLane="2" via=":2_1_2" tl="TL2" linkIndex="3" dir="s" state="O"/>
    <connection from="ce14" to="ce11" fromLane="3" toLane="3" via=":2_4_0" tl="TL2" linkIndex="4" dir="l" state="o"/>
    <connection from="ce3" to="ce8" fromLane="0" toLane="0" via=":1_15_0" tl="TL1" linkIndex="15" dir="r" state="o"/>
    <connection from="ce3" to="ce9" fromLane="0" toLane="0" via=":1_16_0" tl="TL1" linkIndex="16" dir="s" state="o"/>
    <connection from="ce3" to="ce9" fromLane="1" toLane="1" via=":1_16_1" tl="TL1" linkIndex="17" dir="s" state="o"/>
    <connection from="ce3" to="ce9" fromLane="2" toLane="2" via=":1_16_2" tl="TL1" linkIndex="18" dir="s" state="o"/>
    <connection from="ce3" to="e1" fromLane="3" toLane="3" via=":1_19_0" tl="TL1" linkIndex="19" dir="l" state="o"/>
    <connection from="ce4" to="ce3" fromLane="3" toLane="3" via=":c3_0_0" dir="t" state="M"/>
    <connection from="ce5" to="e2" fromLane="0" toLane="0" via=":2_15_0" tl="TL2" linkIndex="15" dir="r" state="o"/>
    <connection from="ce5" to="ce11" fromLane="0" toLane="0" via=":2_16_0" tl="TL2" linkIndex="16" dir="s" state="o"/>
    <connection from="ce5" to="ce11" fromLane="1" toLane="1" via=":2_16_1" tl="TL2" linkIndex="17" dir="s" state="o"/>
    <connection from="ce5" to="ce11" fromLane="2" toLane="2" via=":2_16_2" tl="TL2" linkIndex="18" dir="s" state="o"/>
    <connection from="ce5" to="ce13" fromLane="3" toLane="3" via=":2_19_0" tl="TL2" linkIndex="19" dir="l" state="o"/>
    <connection from="ce6" to="ce5" fromLane="3" toLane="3" via=":c4_0_0" dir="t" state="M"/>
    <connection from="ce7" to="ce9" fromLane="0" toLane="0" via=":1_10_0" tl="TL1" linkIndex="10" dir="r" state="O"/>
    <connection from="ce7" to="e1" fromLane="0" toLane="0" via=":1_11_0" tl="TL1" linkIndex="11" dir="s" state="O"/>
    <connection from="ce7" to="e1" fromLane="1" toLane="1" via=":1_11_1" tl="TL1" linkIndex="12" dir="s" state="O"/>
    <connection from="ce7" to="e1" fromLane="2" toLane="2" via=":1_11_2" tl="TL1" linkIndex="13" dir="s" state="O"/>
    <connection from="ce7" to="ce4" fromLane="3" toLane="3" via=":1_14_0" tl="TL1" linkIndex="14" dir="l" state="o"/>
    <connection from="ce8" to="ce7" fromLane="3" toLane="3" via=":c5_0_0" dir="t" state="M"/>
    <connection from="ce9" to="ce10" fromLane="3" toLane="3" via=":c7_0_0" dir="t" state="M"/>
    <connection from="e1" to="ce11" fromLane="0" toLane="0" via=":2_10_0" tl="TL2" linkIndex="10" dir="r" state="O"/>
    <connection from="e1" to="ce13" fromLane="0" toLane="0" via=":2_11_0" tl="TL2" linkIndex="11" dir="s" state="O"/>
    <connection from="e1" to="ce13" fromLane="1" toLane="1" via=":2_11_1" tl="TL2" linkIndex="12" dir="s" state="O"/>
    <connection from="e1" to="ce13" fromLane="2" toLane="2" via=":2_11_2" tl="TL2" linkIndex="13" dir="s" state="O"/>
    <connection from="e1" to="ce6" fromLane="3" toLane="3" via=":2_14_0" tl="TL2" linkIndex="14" dir="l" state="o"/>
    <connection from="e2" to="ce4" fromLane="0" toLane="0" via=":1_0_0" tl="TL1" linkIndex="0" dir="r" state="O"/>
    <connection from="e2" to="ce8" fromLane="0" toLane="0" via=":1_1_0" tl="TL1" linkIndex="1" dir="s" state="O"/>
    <connection from="e2" to="ce8" fromLane="1" toLane="1" via=":1_1_1" tl="TL1" linkIndex="2" dir="s" state="O"/>
    <connection from="e2" to="ce8" fromLane="2" toLane="2" via=":1_1_2" tl="TL1" linkIndex="3" dir="s" state="O"/>
    <connection from="e2" to="ce9" fromLane="3" toLane="3" via=":1_4_0" tl="TL1" linkIndex="4" dir="l" state="o"/>

    <connection from=":1_0" to="ce4" fromLane="0" toLane="0" dir="r" state="M"/>
    <connection from=":1_1" to="ce8" fromLane="0" toLane="0" dir="s" state="M"/>