<?xml version="1.0" ?>
<connections>
	<connection from="e1" to="e9" fromLane="3" toLane="3"/>
	<connection from="e1" to="ce24" fromLane="0" toLane="0"/>
	<connection from="e1" to="ce25" fromLane="0" toLane="0"/>
	<connection from="e1" to="ce25" fromLane="1" toLane="1"/>
	<connection from="e1" to="ce25" fromLane="2" toLane="2"/>
	<connection from="e2" to="e3" fromLane="0" toLane="0"/>
	<connection from="e2" to="ce12" fromLane="0" toLane="0"/>
	<connection from="e2" to="ce12" fromLane="1" toLane="1"/>
	<connection from="e2" to="ce12" fromLane="2" toLane="2"/>
	<connection from="e2" to="ce18" fromLane="3" toLane="3"/>
	<connection from="e3" to="e5" fromLane="0" toLane="0"/>
	<connection from="e3" to="e7" fromLane="0" toLane="0"/>
	<connection from="e3" to="e7" fromLane="1" toLane="1"/>
	<connection from="e3" to="e7" fromLane="2" toLane="2"/>
	<connection from="e3" to="ce14" fromLane="3" toLane="3"/>
	<connection from="e4" to="e1" fromLane="3" toLane="3"/>
	<connection from="e4" to="ce12" fromLane="0" toLane="0"/>
	<connection from="e4" to="ce18" fromLane="0" toLane="0"/>
	<connection from="e4" to="ce18" fromLane="1" toLane="1"/>
	<connection from="e4" to="ce18" fromLane="2" toLane="2"/>
	<connection from="e5" to="e10" fromLane="0" toLane="0"/>
	<connection from="e5" to="ce27" fromLane="0" toLane="0"/>
	<connection from="e5" to="ce27" fromLane="1" toLane="1"/>
	<connection from="e5" to="ce27" fromLane="2" toLane="2"/>
	<connection from="e5" to="ce29" fromLane="3" toLane="3"/>
	<connection from="e6" to="e4" fromLane="3" toLane="3"/>
	<connection from="e6" to="e7" fromLane="0" toLane="0"/>
	<connection from="e6" to="ce14" fromLane="0" toLane="0"/>
	<connection from="e6" to="ce14" fromLane="1" toLane="1"/>
	<connection from="e6" to="ce14" fromLane="2" toLane="2"/>
	<connection from="e7" to="ce16" fromLane="3" toLane="3"/>
	<connection from="e7" to="ce19" fromLane="0" toLane="0"/>
	<connection from="e7" to="ce21" fromLane="0" toLane="0"/>
	<connection from="e7" to="ce21" fromLane="1" toLane="1"/>
	<connection from="e7" to="ce21" fromLane="2" toLane="2"/>
	<connection from="e8" to="e4" fromLane="0" toLane="0"/>
	<connection from="e8" to="e4" fromLane="1" toLane="1"/>
	<connection from="e8" to="e4" fromLane="2" toLane="2"/>
	<connection from="e8" to="e5" fromLane="3" toLane="3"/>
	<connection from="e8" to="ce14" fromLane="0" toLane="0"/>
	<connection from="e9" to="e6" fromLane="3" toLane="3"/>
	<connection from="e9" to="ce27" fromLane="0" toLane="0"/>
	<connection from="e9" to="ce29" fromLane="0" toLane="0"/>
	<connection from="e9" to="ce29" fromLane="1" toLane="1"/>
	<connection from="e9" to="ce29" fromLane="2" toLane="2"/>
	<connection from="e10" to="e2" fromLane="0" toLane="0"/>
	<connection from="e10" to="ce24" fromLane="0" toLane="0"/>
	<connection from="e10" to="ce24" fromLane="1" toLane="1"/>
	<connection from="e10" to="ce24" fromLane="2" toLane="2"/>
	<connection from="e10" to="ce25" fromLane="3" toLane="3"/>
	<connection from="ce11" to="e1" fromLane="0" toLane="0"/>
	<connection from="ce11" to="e1" fromLane="1" toLane="1"/>
	<connection from="ce11" to="e1" fromLane="2" toLane="2"/>
	<connection from="ce11" to="e3" fromLane="3" toLane="3"/>
	<connection from="ce11" to="ce18" fromLane="0" toLane="0"/>
	<connection from="ce13" to="e4" fromLane="0" toLane="0"/>
	<connection from="ce13" to="e5" fromLane="0" toLane="0"/>
	<connection from="ce13" to="e5" fromLane="1" toLane="1"/>
	<connection from="ce13" to="e5" fromLane="2" toLane="2"/>
	<connection from="ce13" to="e7" fromLane="3" toLane="3"/>
	<connection from="ce15" to="e8" fromLane="0" toLane="0"/>
	<connection from="ce15" to="ce19" fromLane="0" toLane="0"/>
	<connection from="ce15" to="ce19" fromLane="1" toLane="1"/>
	<connection from="ce15" to="ce19" fromLane="2" toLane="2"/>
	<connection from="ce15" to="ce21" fromLane="3" toLane="3"/>
	<connection from="ce17" to="e1" fromLane="0" toLane="0"/>
	<connection from="ce17" to="e3" fromLane="0" toLane="0"/>
	<connection from="ce17" to="e3" fromLane="1" toLane="1"/>
	<connection from="ce17" to="e3" fromLane="2" toLane="2"/>
	<connection from="ce17" to="ce12" fromLane="3" toLane="3"/>
	<connection from="ce20" to="e8" fromLane="3" toLane="3"/>
	<connection from="ce20" to="ce16" fromLane="0" toLane="0"/>
	<connection from="ce20" to="ce16" fromLane="1" toLane="1"/>
	<connection from="ce20" to="ce16" fromLane="2" toLane="2"/>
	<connection from="ce20" to="ce21" fromLane="0" toLane="0"/>
	<connection from="ce22" to="e8" fromLane="0" toLane="0"/>
	<connection from="ce22" to="e8" fromLane="1" toLane="1"/>
	<connection from="ce22" to="e8" fromLane="2" toLane="2"/>
	<connection from="ce22" to="ce16" fromLane="0" toLane="0"/>
	<connection from="ce22" to="ce19" fromLane="3" toLane="3"/>
	<connection from="ce23" to="e2" fromLane="3" toLane="3"/>
	<connection from="ce23" to="e9" fromLane="0" toLane="0"/>
	<connection from="ce23" to="e9" fromLane="1" toLane="1"/>
	<connection from="ce23" to="e9" fromLane="2" toLane="2"/>
	<connection from="ce23" to="ce25" fromLane="0" toLane="0"/>
	<connection from="ce26" to="e2" fromLane="0" toLane="0"/>
	<connection from="ce26" to="e2" fromLane="1" toLane="1"/>
	<connection from="ce26" to="e2" fromLane="2" toLane="2"/>
	<connection from="ce26" to="e9" fromLane="0" toLane="0"/>
	<connection from="ce26" to="ce24" fromLane="3" toLane="3"/>
	<connection from="ce28" to="e6" fromLane="0" toLane="0"/>
	<connection from="ce28" to="e6" fromLane="1" toLane="1"/>
	<connection from="ce28" to="e6" fromLane="2" toLane="2"/>
	<connection from="ce28" to="e10" fromLane="3" toLane="3"/>
	<connection from="ce28" to="ce29" fromLane="0" toLane="0"/>
	<connection from="ce30" to="e6" fromLane="0" toLane="0"/>
	<connection from="ce30" to="e10" fromLane="0" toLane="0"/>
	<connection from="ce30" to="e10" fromLane="1" toLane="1"/>
	<connection from="ce30" to="e10" fromLane="2" toLane="2"/>
	<connection from="ce30" to="ce27" fromLane="3" toLane="3"/>
</connections>
