<routes>
             <vType accel="1.0" decel="4.5" id="standard_car" length="5.0" minGap="2.5" maxSpeed="25" sigma="0.5" />
                    
    <trip id="0" depart="11.0" from="ce28" to="ce21" type="standard_car" departLane="random" departSpeed="10" />
    <trip id="1" depart="14.0" from="ce20" to="ce24" type="standard_car" departLane="random" departSpeed="10" />
    <trip id="2" depart="18.0" from="ce28" to="ce24" type="standard_car" departLane="random" departSpeed="10" />
    <trip id="3" depart="22.0" from="ce20" to="ce19" type="standard_car" departLane="random" departSpeed="10" />
    <trip id="4" depart="39.0" from="ce26" to="ce16" type="standard_car" departLane="random" departSpeed="10" />
    <trip id="5" depart="42.0" from="ce28" to="ce18" type="standard_car" departLane="random" departSpeed="10" />
    <trip id="6" depart="48.0" from="ce20" to="ce12" type="standard_car" departLane="random" departSpeed="10" />
    <trip id="7" depart="61.0" from="ce20" to="ce24" type="standard_car" departLane="random" departSpeed="10" />
    <trip id="8" depart="63.0" from="ce26" to="ce21" type="standard_car" departLane="random" departSpeed="10" />
    <trip id="9" depart="71.0" from="ce20" to="ce21" type="standard_car" departLane="random" departSpeed="10" />
    <trip id="10" depart="87.0" from="ce20" to="ce29" type="standard_car" departLane="random" departSpeed="10" />
    <trip id="11" depart="99.0" from="ce26" to="ce21" type="standard_car" departLane="random" departSpeed="10" />
    <trip id="12" depart="116.0" from="ce13" to="ce25" type="standard_car" departLane="random" departSpeed="10" />
    <trip id="13" depart="116.0" from="ce28" to="ce29" type="standard_car" departLane="random" departSpeed="10" />
    <trip id="14" depart="146.0" from="ce28" to="ce25" type="standard_car" departLane="random" departSpeed="10" />
    <trip id="15" depart="146.0" from="ce28" to="ce18" type="standard_car" departLane="random" departSpeed="10" />
    <trip id="16" depart="179.0" from="ce20" to="ce24" type="standard_car" departLane="random" departSpeed="10" />
    <trip id="17" depart="180.0" from="ce26" to="ce12" type="standard_car" departLane="random" departSpeed="10" />
    <trip id="18" depart="201.0" from="ce11" to="ce18" type="standard_car" departLane="random" departSpeed="10" />
    <trip id="19" depart="208.0" from="ce26" to="ce19" type="standard_car" departLane="random" departSpeed="10" />
    <trip id="20" depart="223.0" from="ce20" to="ce16" type="standard_car" departLane="random" departSpeed="10" />
    <trip id="21" depart="228.0" from="ce28" to="ce29" type="standard_car" departLane="random" departSpeed="10" />
    <trip id="22" depart="231.0" from="ce28" to="ce18" type="standard_car" departLane="random" departSpeed="10" />
    <trip id="23" depart="237.0" from="ce26" to="ce21" type="standard_car" departLane="random" departSpeed="10" />
    <trip id="24" depart="238.0" from="ce26" to="ce18" type="standard_car" departLane="random" departSpeed="10" />
    <trip id="25" depart="241.0" from="ce15" to="ce21" type="standard_car" departLane="random" departSpeed="10" />
    <trip id="26" depart="242.0" from="ce20" to="ce29" type="standard_car" departLane="random" departSpeed="10" />
    <trip id="27" depart="250.0" from="ce15" to="ce25" type="standard_car" departLane="random" departSpeed="10" />
    <trip id="28" depart="255.0" from="ce26" to="ce18" type="standard_car" departLane="random" departSpeed="10" />
    <trip id="29" depart="272.0" from="ce17" to="ce29" type="standard_car" departLane="random" departSpeed="10" />
    <trip id="30" depart="276.0" from="ce20" to="ce14" type="standard_car" departLane="random" departSpeed="10" />
    <trip id="31" depart="286.0" from="ce11" to="ce21" type="standard_car" departLane="random" departSpeed="10" />
    <trip id="32" depart="298.0" from="ce11" to="ce24" type="standard_car" departLane="random" departSpeed="10" />
    <trip id="33" depart="310.0" from="ce22" to="ce19" type="standard_car" departLane="random" departSpeed="10" />
    <trip id="34" depart="314.0" from="ce20" to="ce14" type="standard_car" departLane="random" departSpeed="10" />
    <trip id="35" depart="330.0" from="ce26" to="ce21" type="standard_car" departLane="random" departSpeed="10" />
    <trip id="36" depart="331.0" from="ce30" to="ce14" type="standard_car" departLane="random" departSpeed="10" />
    <trip id="37" depart="331.0" from="ce23" to="ce14" type="standard_car" departLane="random" departSpeed="10" />
    <trip id="38" depart="332.0" from="ce26" to="ce25" type="standard_car" departLane="random" departSpeed="10" />
    <trip id="39" depart="333.0" from="ce11" to="ce27" type="standard_car" departLane="random" departSpeed="10" />
    <trip id="40" depart="336.0" from="ce26" to="ce27" type="standard_car" departLane="random" departSpeed="10" />
    <trip id="41" depart="337.0" from="ce28" to="ce18" type="standard_car" departLane="random" departSpeed="10" />
    <trip id="42" depart="362.0" from="ce28" to="ce18" type="standard_car" departLane="random" departSpeed="10" />
    <trip id="43" depart="369.0" from="ce11" to="ce18" type="standard_car" departLane="random" departSpeed="10" />
    <trip id="44" depart="382.0" from="ce28" to="ce18" type="standard_car" departLane="random" departSpeed="10" />
    <trip id="45" depart="393.0" from="ce28" to="ce14" type="standard_car" departLane="random" departSpeed="10" />
    <trip id="46" depart="395.0" from="ce22" to="ce19" type="standard_car" departLane="random" departSpeed="10" />
    <trip id="47" depart="406.0" from="ce20" to="ce12" type="standard_car" departLane="random" departSpeed="10" />
    <trip id="48" depart="409.0" from="ce15" to="ce24" type="standard_car" departLane="random" departSpeed="10" />
    <trip id="49" depart="416.0" from="ce22" to="ce25" type="standard_car" departLane="random" departSpeed="10" />
    <trip id="50" depart="416.0" from="ce13" to="ce29" type="standard_car" departLane="random" departSpeed="10" />
    <trip id="51" depart="428.0" from="ce28" to="ce18" type="standard_car" departLane="random" departSpeed="10" />
    <trip id="52" depart="428.0" from="ce28" to="ce21" type="standard_car" departLane="random" departSpeed="10" />
    <trip id="53" depart="430.0" from="ce26" to="ce21" type="standard_car" departLane="random" departSpeed="10" />
    <trip id="54" depart="431.0" from="ce28" to="ce21" type="standard_car" departLane="random" departSpeed="10" />
    <trip id="55" depart="458.0" from="ce17" to="ce16" type="standard_car" departLane="random" departSpeed="10" />
    <trip id="56" depart="467.0" from="ce28" to="ce21" type="standard_car" departLane="random" departSpeed="10" />
    <trip id="57" depart="487.0" from="ce26" to="ce16" type="standard_car" departLane="random" departSpeed="10" />
    <trip id="58" depart="489.0" from="ce20" to="ce12" type="standard_car" departLane="random" departSpeed="10" />
    <trip id="59" depart="490.0" from="ce28" to="ce16" type="standard_car" departLane="random" departSpeed="10" />
    <trip id="60" depart="497.0" from="ce15" to="ce24" type="standard_car" departLane="random" departSpeed="10" />
    <trip id="61" depart="502.0" from="ce28" to="ce12" type="standard_car" departLane="random" departSpeed="10" />
    <trip id="62" depart="506.0" from="ce22" to="ce24" type="standard_car" departLane="random" departSpeed="10" />
    <trip id="63" depart="507.0" from="ce22" to="ce27" type="standard_car" departLane="random" departSpeed="10" />
    <trip id="64" depart="507.0" from="ce13" to="ce21" type="standard_car" departLane="random" departSpeed="10" />
    <trip id="65" depart="514.0" from="ce26" to="ce16" type="standard_car" departLane="random" departSpeed="10" />
    <trip id="66" depart="515.0" from="ce26" to="ce18" type="standard_car" departLane="random" departSpeed="10" />
    <trip id="67" depart="526.0" from="ce30" to="ce12" type="standard_car" departLane="random" departSpeed="10" />
    <trip id="68" depart="533.0" from="ce30" to="ce18" type="standard_car" departLane="random" departSpeed="10" />
    <trip id="69" depart="534.0" from="ce26" to="ce16" type="standard_car" departLane="random" departSpeed="10" />
    <trip id="70" depart="549.0" from="ce28" to="ce24" type="standard_car" departLane="random" departSpeed="10" />
    <trip id="71" depart="560.0" from="ce28" to="ce29" type="standard_car" departLane="random" departSpeed="10" />
    <trip id="72" depart="587.0" from="ce26" to="ce16" type="standard_car" departLane="random" departSpeed="10" />
    <trip id="73" depart="588.0" from="ce23" to="ce24" type="standard_car" departLane="random" departSpeed="10" />
    <trip id="74" depart="595.0" from="ce28" to="ce24" type="standard_car" departLane="random" departSpeed="10" />
    <trip id="75" depart="608.0" from="ce13" to="ce29" type="standard_car" departLane="random" departSpeed="10" />
    <trip id="76" depart="625.0" from="ce13" to="ce18" type="standard_car" departLane="random" departSpeed="10" />
    <trip id="77" depart="626.0" from="ce20" to="ce29" type="standard_car" departLane="random" departSpeed="10" />
    <trip id="78" depart="627.0" from="ce20" to="ce18" type="standard_car" departLane="random" departSpeed="10" />
    <trip id="79" depart="643.0" from="ce28" to="ce29" type="standard_car" departLane="random" departSpeed="10" />
    <trip id="80" depart="654.0" from="ce26" to="ce24" type="standard_car" departLane="random" departSpeed="10" />
    <trip id="81" depart="654.0" from="ce22" to="ce12" type="standard_car" departLane="random" departSpeed="10" />
    <trip id="82" depart="655.0" from="ce20" to="ce14" type="standard_car" departLane="random" departSpeed="10" />
    <trip id="83" depart="655.0" from="ce28" to="ce29" type="standard_car" departLane="random" departSpeed="10" />
    <trip id="84" depart="669.0" from="ce13" to="ce29" type="standard_car" departLane="random" departSpeed="10" />
    <trip id="85" depart="670.0" from="ce28" to="ce18" type="standard_car" departLane="random" departSpeed="10" />
    <trip id="86" depart="673.0" from="ce28" to="ce14" type="standard_car" departLane="random" departSpeed="10" />
    <trip id="87" depart="676.0" from="ce20" to="ce18" type="standard_car" departLane="random" departSpeed="10" />
    <trip id="88" depart="679.0" from="ce26" to="ce24" type="standard_car" departLane="random" departSpeed="10" />
    <trip id="89" depart="685.0" from="ce13" to="ce27" type="standard_car" departLane="random" departSpeed="10" />
    <trip id="90" depart="686.0" from="ce11" to="ce16" type="standard_car" departLane="random" departSpeed="10" />
    <trip id="91" depart="693.0" from="ce20" to="ce24" type="standard_car" departLane="random" departSpeed="10" />
    <trip id="92" depart="694.0" from="ce20" to="ce29" type="standard_car" departLane="random" departSpeed="10" />
    <trip id="93" depart="703.0" from="ce11" to="ce25" type="standard_car" departLane="random" departSpeed="10" />
    <trip id="94" depart="703.0" from="ce20" to="ce12" type="standard_car" departLane="random" departSpeed="10" />
    <trip id="95" depart="704.0" from="ce26" to="ce29" type="standard_car" departLane="random" departSpeed="10" />
    <trip id="96" depart="708.0" from="ce28" to="ce24" type="standard_car" departLane="random" departSpeed="10" />
    <trip id="97" depart="713.0" from="ce26" to="ce21" type="standard_car" departLane="random" departSpeed="10" />
    <trip id="98" depart="731.0" from="ce20" to="ce29" type="standard_car" departLane="random" departSpeed="10" />
    <trip id="99" depart="735.0" from="ce26" to="ce21" type="standard_car" departLane="random" departSpeed="10" />
    <trip id="100" depart="739.0" from="ce30" to="ce25" type="standard_car" departLane="random" departSpeed="10" />
    <trip id="101" depart="747.0" from="ce28" to="ce16" type="standard_car" departLane="random" departSpeed="10" />
    <trip id="102" depart="758.0" from="ce26" to="ce18" type="standard_car" departLane="random" departSpeed="10" />
    <trip id="103" depart="763.0" from="ce28" to="ce16" type="standard_car" departLane="random" departSpeed="10" />
    <trip id="104" depart="770.0" from="ce15" to="ce27" type="standard_car" departLane="random" departSpeed="10" />
    <trip id="105" depart="774.0" from="ce30" to="ce24" type="standard_car" departLane="random" departSpeed="10" />
    <trip id="106" depart="774.0" from="ce26" to="ce27" type="standard_car" departLane="random" departSpeed="10" />
    <trip id="107" depart="776.0" from="ce20" to="ce24" type="standard_car" departLane="random" departSpeed="10" />
    <trip id="108" depart="780.0" from="ce26" to="ce18" type="standard_car" departLane="random" departSpeed="10" />
    <trip id="109" depart="782.0" from="ce15" to="ce24" type="standard_car" departLane="random" departSpeed="10" />
    <trip id="110" depart="801.0" from="ce26" to="ce14" type="standard_car" departLane="random" departSpeed="10" />
    <trip id="111" depart="807.0" from="ce28" to="ce18" type="standard_car" departLane="random" departSpeed="10" />
    <trip id="112" depart="811.0" from="ce15" to="ce24" type="standard_car" departLane="random" departSpeed="10" />
    <trip id="113" depart="814.0" from="ce30" to="ce12" type="standard_car" departLane="random" departSpeed="10" />
    <trip id="114" depart="818.0" from="ce11" to="ce25" type="standard_car" departLane="random" departSpeed="10" />
    <trip id="115" depart="821.0" from="ce28" to="ce21" type="standard_car" departLane="random" departSpeed="10" />
    <trip id="116" depart="826.0" from="ce15" to="ce29" type="standard_car" departLane="random" departSpeed="10" />
    <trip id="117" depart="839.0" from="ce20" to="ce29" type="standard_car" departLane="random" departSpeed="10" />
    <trip id="118" depart="854.0" from="ce26" to="ce21" type="standard_car" departLane="random" departSpeed="10" />
    <trip id="119" depart="858.0" from="ce11" to="ce18" type="standard_car" departLane="random" departSpeed="10" />
    <trip id="120" depart="879.0" from="ce26" to="ce21" type="standard_car" departLane="random" departSpeed="10" />
    <trip id="121" depart="891.0" from="ce11" to="ce19" type="standard_car" departLane="random" departSpeed="10" />
    <trip id="122" depart="893.0" from="ce22" to="ce14" type="standard_car" departLane="random" departSpeed="10" />
    <trip id="123" depart="893.0" from="ce26" to="ce16" type="standard_car" departLane="random" departSpeed="10" />
    <trip id="124" depart="897.0" from="ce15" to="ce21" type="standard_car" departLane="random" departSpeed="10" />
    <trip id="125" depart="901.0" from="ce20" to="ce12" type="standard_car" departLane="random" departSpeed="10" />
    <trip id="126" depart="904.0" from="ce28" to="ce18" type="standard_car" departLane="random" departSpeed="10" />
    <trip id="127" depart="911.0" from="ce15" to="ce19" type="standard_car" departLane="random" departSpeed="10" />
    <trip id="128" depart="917.0" from="ce30" to="ce14" type="standard_car" departLane="random" departSpeed="10" />
    <trip id="129" depart="922.0" from="ce13" to="ce18" type="standard_car" departLane="random" departSpeed="10" />
    <trip id="130" depart="928.0" from="ce22" to="ce16" type="standard_car" departLane="random" departSpeed="10" />
    <trip id="131" depart="936.0" from="ce30" to="ce12" type="standard_car" departLane="random" departSpeed="10" />
    <trip id="132" depart="958.0" from="ce28" to="ce21" type="standard_car" departLane="random" departSpeed="10" />
    <trip id="133" depart="968.0" from="ce22" to="ce25" type="standard_car" departLane="random" departSpeed="10" />
    <trip id="134" depart="982.0" from="ce26" to="ce12" type="standard_car" departLane="random" departSpeed="10" />
    <trip id="135" depart="987.0" from="ce26" to="ce18" type="standard_car" departLane="random" departSpeed="10" />
    <trip id="136" depart="987.0" from="ce28" to="ce29" type="standard_car" departLane="random" departSpeed="10" />
    <trip id="137" depart="996.0" from="ce30" to="ce18" type="standard_car" departLane="random" departSpeed="10" />
    <trip id="138" depart="997.0" from="ce30" to="ce24" type="standard_car" departLane="random" departSpeed="10" />
    <trip id="139" depart="1009.0" from="ce26" to="ce29" type="standard_car" departLane="random" departSpeed="10" />
    <trip id="140" depart="1011.0" from="ce15" to="ce19" type="standard_car" departLane="random" departSpeed="10" />
    <trip id="141" depart="1012.0" from="ce22" to="ce14" type="standard_car" departLane="random" departSpeed="10" />
    <trip id="142" depart="1014.0" from="ce20" to="ce12" type="standard_car" departLane="random" departSpeed="10" />
    <trip id="143" depart="1015.0" from="ce22" to="ce25" type="standard_car" departLane="random" departSpeed="10" />
    <trip id="144" depart="1018.0" from="ce30" to="ce16" type="standard_car" departLane="random" departSpeed="10" />
    <trip id="145" depart="1027.0" from="ce20" to="ce14" type="standard_car" departLane="random" departSpeed="10" />
    <trip id="146" depart="1035.0" from="ce13" to="ce29" type="standard_car" departLane="random" departSpeed="10" />
    <trip id="147" depart="1040.0" from="ce15" to="ce25" type="standard_car" departLane="random" departSpeed="10" />
    <trip id="148" depart="1040.0" from="ce26" to="ce21" type="standard_car" departLane="random" departSpeed="10" />
    <trip id="149" depart="1052.0" from="ce11" to="ce18" type="standard_car" departLane="random" departSpeed="10" />
    <trip id="150" depart="1053.0" from="ce26" to="ce18" type="standard_car" departLane="random" departSpeed="10" />
    <trip id="151" depart="1054.0" from="ce20" to="ce16" type="standard_car" departLane="random" departSpeed="10" />
    <trip id="152" depart="1054.0" from="ce13" to="ce18" type="standard_car" departLane="random" departSpeed="10" />
    <trip id="153" depart="1055.0" from="ce28" to="ce18" type="standard_car" departLane="random" departSpeed="10" />
    <trip id="154" depart="1061.0" from="ce11" to="ce29" type="standard_car" departLane="random" departSpeed="10" />
    <trip id="155" depart="1065.0" from="ce13" to="ce27" type="standard_car" departLane="random" departSpeed="10" />
    <trip id="156" depart="1069.0" from="ce13" to="ce21" type="standard_car" departLane="random" departSpeed="10" />
    <trip id="157" depart="1069.0" from="ce26" to="ce18" type="standard_car" departLane="random" departSpeed="10" />
    <trip id="158" depart="1080.0" from="ce20" to="ce29" type="standard_car" departLane="random" departSpeed="10" />
    <trip id="159" depart="1087.0" from="ce28" to="ce21" type="standard_car" departLane="random" departSpeed="10" />
    <trip id="160" depart="1090.0" from="ce28" to="ce16" type="standard_car" departLane="random" departSpeed="10" />
    <trip id="161" depart="1092.0" from="ce20" to="ce14" type="standard_car" departLane="random" departSpeed="10" />
    <trip id="162" depart="1100.0" from="ce26" to="ce18" type="standard_car" departLane="random" departSpeed="10" />
    <trip id="163" depart="1102.0" from="ce30" to="ce29" type="standard_car" departLane="random" departSpeed="10" />
    <trip id="164" depart="1104.0" from="ce28" to="ce18" type="standard_car" departLane="random" departSpeed="10" />
    <trip id="165" depart="1105.0" from="ce28" to="ce18" type="standard_car" departLane="random" departSpeed="10" />
    <trip id="166" depart="1115.0" from="ce30" to="ce18" type="standard_car" departLane="random" departSpeed="10" />
    <trip id="167" depart="1119.0" from="ce28" to="ce24" type="standard_car" departLane="random" departSpeed="10" />
    <trip id="168" depart="1137.0" from="ce28" to="ce14" type="standard_car" departLane="random" departSpeed="10" />
    <trip id="169" depart="1137.0" from="ce26" to="ce21" type="standard_car" departLane="random" departSpeed="10" />
    <trip id="170" depart="1139.0" from="ce15" to="ce24" type="standard_car" departLane="random" departSpeed="10" />
    <trip id="171" depart="1149.0" from="ce20" to="ce18" type="standard_car" departLane="random" departSpeed="10" />
    <trip id="172" depart="1160.0" from="ce28" to="ce16" type="standard_car" departLane="random" departSpeed="10" />
    <trip id="173" depart="1172.0" from="ce28" to="ce18" type="standard_car" departLane="random" departSpeed="10" />
    <trip id="174" depart="1173.0" from="ce28" to="ce14" type="standard_car" departLane="random" departSpeed="10" />
    <trip id="175" depart="1174.0" from="ce28" to="ce24" type="standard_car" departLane="random" departSpeed="10" />
    <trip id="176" depart="1177.0" from="ce28" to="ce21" type="standard_car" departLane="random" departSpeed="10" />
    <trip id="177" depart="1189.0" from="ce11" to="ce24" type="standard_car" departLane="random" departSpeed="10" />
    <trip id="178" depart="1189.0" from="ce22" to="ce14" type="standard_car" departLane="random" departSpeed="10" />
    <trip id="179" depart="1194.0" from="ce28" to="ce29" type="standard_car" departLane="random" departSpeed="10" />
    <trip id="180" depart="1207.0" from="ce26" to="ce16" type="standard_car" departLane="random" departSpeed="10" />
    <trip id="181" depart="1215.0" from="ce28" to="ce12" type="standard_car" departLane="random" departSpeed="10" />
    <trip id="182" depart="1216.0" from="ce26" to="ce24" type="standard_car" departLane="random" departSpeed="10" />
    <trip id="183" depart="1219.0" from="ce26" to="ce12" type="standard_car" departLane="random" departSpeed="10" />
    <trip id="184" depart="1230.0" from="ce11" to="ce18" type="standard_car" departLane="random" departSpeed="10" />
    <trip id="185" depart="1236.0" from="ce30" to="ce12" type="standard_car" departLane="random" departSpeed="10" />
    <trip id="186" depart="1237.0" from="ce20" to="ce16" type="standard_car" departLane="random" departSpeed="10" />
    <trip id="187" depart="1245.0" from="ce20" to="ce27" type="standard_car" departLane="random" departSpeed="10" />
    <trip id="188" depart="1247.0" from="ce22" to="ce29" type="standard_car" departLane="random" departSpeed="10" />
    <trip id="189" depart="1260.0" from="ce28" to="ce25" type="standard_car" departLane="random" departSpeed="10" />
    <trip id="190" depart="1268.0" from="ce15" to="ce12" type="standard_car" departLane="random" departSpeed="10" />
    <trip id="191" depart="1268.0" from="ce30" to="ce14" type="standard_car" departLane="random" departSpeed="10" />
    <trip id="192" depart="1284.0" from="ce20" to="ce18" type="standard_car" departLane="random" departSpeed="10" />
    <trip id="193" depart="1306.0" from="ce28" to="ce16" type="standard_car" departLane="random" departSpeed="10" />
    <trip id="194" depart="1307.0" from="ce26" to="ce12" type="standard_car" departLane="random" departSpeed="10" />
    <trip id="195" depart="1309.0" from="ce26" to="ce16" type="standard_car" departLane="random" departSpeed="10" />
    <trip id="196" depart="1309.0" from="ce20" to="ce18" type="standard_car" departLane="random" departSpeed="10" />
    <trip id="197" depart="1310.0" from="ce28" to="ce29" type="standard_car" departLane="random" departSpeed="10" />
    <trip id="198" depart="1314.0" from="ce28" to="ce21" type="standard_car" departLane="random" departSpeed="10" />
    <trip id="199" depart="1344.0" from="ce15" to="ce29" type="standard_car" departLane="random" departSpeed="10" />
    <trip id="200" depart="1350.0" from="ce28" to="ce14" type="standard_car" departLane="random" departSpeed="10" />
    <trip id="201" depart="1360.0" from="ce26" to="ce12" type="standard_car" departLane="random" departSpeed="10" />
    <trip id="202" depart="1363.0" from="ce28" to="ce16" type="standard_car" departLane="random" departSpeed="10" />
    <trip id="203" depart="1374.0" from="ce28" to="ce19" type="standard_car" departLane="random" departSpeed="10" />
    <trip id="204" depart="1377.0" from="ce28" to="ce27" type="standard_car" departLane="random" departSpeed="10" />
    <trip id="205" depart="1393.0" from="ce30" to="ce18" type="standard_car" departLane="random" departSpeed="10" />
    <trip id="206" depart="1405.0" from="ce20" to="ce24" type="standard_car" departLane="random" departSpeed="10" />
    <trip id="207" depart="1417.0" from="ce26" to="ce18" type="standard_car" departLane="random" departSpeed="10" />
    <trip id="208" depart="1417.0" from="ce28" to="ce24" type="standard_car" departLane="random" departSpeed="10" />
    <trip id="209" depart="1420.0" from="ce17" to="ce21" type="standard_car" departLane="random" departSpeed="10" />
    <trip id="210" depart="1428.0" from="ce28" to="ce16" type="standard_car" departLane="random" departSpeed="10" />
    <trip id="211" depart="1439.0" from="ce28" to="ce24" type="standard_car" departLane="random" departSpeed="10" />
    <trip id="212" depart="1465.0" from="ce28" to="ce16" type="standard_car" departLane="random" departSpeed="10" />
    <trip id="213" depart="1466.0" from="ce30" to="ce16" type="standard_car" departLane="random" departSpeed="10" />
    <trip id="214" depart="1474.0" from="ce20" to="ce21" type="standard_car" departLane="random" departSpeed="10" />
    <trip id="215" depart="1481.0" from="ce28" to="ce25" type="standard_car" departLane="random" departSpeed="10" />
    <trip id="216" depart="1487.0" from="ce30" to="ce24" type="standard_car" departLane="random" departSpeed="10" />
    <trip id="217" depart="1489.0" from="ce20" to="ce29" type="standard_car" departLane="random" departSpeed="10" />
    <trip id="218" depart="1492.0" from="ce13" to="ce27" type="standard_car" departLane="random" departSpeed="10" />
    <trip id="219" depart="1504.0" from="ce28" to="ce12" type="standard_car" departLane="random" departSpeed="10" />
    <trip id="220" depart="1505.0" from="ce26" to="ce14" type="standard_car" departLane="random" departSpeed="10" />
    <trip id="221" depart="1511.0" from="ce28" to="ce12" type="standard_car" departLane="random" departSpeed="10" />
    <trip id="222" depart="1513.0" from="ce20" to="ce24" type="standard_car" departLane="random" departSpeed="10" />
    <trip id="223" depart="1514.0" from="ce28" to="ce27" type="standard_car" departLane="random" departSpeed="10" />
    <trip id="224" depart="1516.0" from="ce20" to="ce18" type="standard_car" departLane="random" departSpeed="10" />
    <trip id="225" depart="1521.0" from="ce28" to="ce18" type="standard_car" departLane="random" departSpeed="10" />
    <trip id="226" depart="1528.0" from="ce30" to="ce12" type="standard_car" departLane="random" departSpeed="10" />
    <trip id="227" depart="1535.0" from="ce20" to="ce24" type="standard_car" departLane="random" departSpeed="10" />
    <trip id="228" depart="1536.0" from="ce20" to="ce18" type="standard_car" departLane="random" departSpeed="10" />
    <trip id="229" depart="1538.0" from="ce13" to="ce14" type="standard_car" departLane="random" departSpeed="10" />
    <trip id="230" depart="1542.0" from="ce20" to="ce29" type="standard_car" departLane="random" departSpeed="10" />
    <trip id="231" depart="1586.0" from="ce20" to="ce25" type="standard_car" departLane="random" departSpeed="10" />
    <trip id="232" depart="1588.0" from="ce20" to="ce18" type="standard_car" departLane="random" departSpeed="10" />
    <trip id="233" depart="1591.0" from="ce20" to="ce24" type="standard_car" departLane="random" departSpeed="10" />
    <trip id="234" depart="1599.0" from="ce28" to="ce24" type="standard_car" departLane="random" departSpeed="10" />
    <trip id="235" depart="1612.0" from="ce28" to="ce18" type="standard_car" departLane="random" departSpeed="10" />
    <trip id="236" depart="1624.0" from="ce17" to="ce18" type="standard_car" departLane="random" departSpeed="10" />
    <trip id="237" depart="1649.0" from="ce28" to="ce21" type="standard_car" departLane="random" departSpeed="10" />
    <trip id="238" depart="1655.0" from="ce20" to="ce14" type="standard_car" departLane="random" departSpeed="10" />
    <trip id="239" depart="1660.0" from="ce26" to="ce24" type="standard_car" departLane="random" departSpeed="10" />
    <trip id="240" depart="1687.0" from="ce20" to="ce14" type="standard_car" departLane="random" departSpeed="10" />
    <trip id="241" depart="1688.0" from="ce28" to="ce14" type="standard_car" departLane="random" departSpeed="10" />
    <trip id="242" depart="1692.0" from="ce26" to="ce14" type="standard_car" departLane="random" departSpeed="10" />
    <trip id="243" depart="1692.0" from="ce13" to="ce19" type="standard_car" departLane="random" departSpeed="10" />
    <trip id="244" depart="1698.0" from="ce15" to="ce18" type="standard_car" departLane="random" departSpeed="10" />
    <trip id="245" depart="1704.0" from="ce13" to="ce24" type="standard_car" departLane="random" departSpeed="10" />
    <trip id="246" depart="1730.0" from="ce26" to="ce14" type="standard_car" departLane="random" departSpeed="10" />
    <trip id="247" depart="1731.0" from="ce11" to="ce19" type="standard_car" departLane="random" departSpeed="10" />
    <trip id="248" depart="1732.0" from="ce28" to="ce25" type="standard_car" departLane="random" departSpeed="10" />
    <trip id="249" depart="1738.0" from="ce11" to="ce16" type="standard_car" departLane="random" departSpeed="10" />
    <trip id="250" depart="1741.0" from="ce15" to="ce25" type="standard_car" departLane="random" departSpeed="10" />
    <trip id="251" depart="1751.0" from="ce28" to="ce21" type="standard_car" departLane="random" departSpeed="10" />
    <trip id="252" depart="1752.0" from="ce11" to="ce16" type="standard_car" departLane="random" departSpeed="10" />
    <trip id="253" depart="1753.0" from="ce26" to="ce29" type="standard_car" departLane="random" departSpeed="10" />
    <trip id="254" depart="1757.0" from="ce26" to="ce14" type="standard_car" departLane="random" departSpeed="10" />
    <trip id="255" depart="1762.0" from="ce20" to="ce16" type="standard_car" departLane="random" departSpeed="10" />
    <trip id="256" depart="1768.0" from="ce26" to="ce19" type="standard_car" departLane="random" departSpeed="10" />