<routes>
             <vType accel="1.0" decel="4.5" id="standard_car" length="5.0" minGap="2.5" maxSpeed="25" sigma="0.5" />
                    
    <trip id="0" depart="8.0" from="ce8" to="ce5" type="standard_car" departLane="random" departSpeed="10" />
    <trip id="1" depart="8.0" from="ce1" to="ce5" type="standard_car" departLane="random" departSpeed="10" />
    <trip id="2" depart="31.0" from="ce8" to="ce5" type="standard_car" departLane="random" departSpeed="10" />
    <trip id="3" depart="34.0" from="ce1" to="ce4" type="standard_car" departLane="random" departSpeed="10" />
    <trip id="4" depart="49.0" from="ce8" to="ce4" type="standard_car" departLane="random" departSpeed="10" />
    <trip id="5" depart="49.0" from="ce1" to="ce5" type="standard_car" departLane="random" departSpeed="10" />
    <trip id="6" depart="57.0" from="ce1" to="ce7" type="standard_car" departLane="random" departSpeed="10" />
    <trip id="7" depart="57.0" from="ce1" to="ce5" type="standard_car" departLane="random" departSpeed="10" />
    <trip id="8" depart="61.0" from="ce1" to="ce4" type="standard_car" departLane="random" departSpeed="10" />
    <trip id="9" depart="78.0" from="ce1" to="ce7" type="standard_car" departLane="random" departSpeed="10" />
    <trip id="10" depart="90.0" from="ce1" to="ce4" type="standard_car" departLane="random" departSpeed="10" />
    <trip id="11" depart="100.0" from="ce1" to="ce4" type="standard_car" departLane="random" departSpeed="10" />
    <trip id="12" depart="105.0" from="ce6" to="ce7" type="standard_car" departLane="random" departSpeed="10" />
    <trip id="13" depart="115.0" from="ce1" to="ce7" type="standard_car" departLane="random" departSpeed="10" />
    <trip id="14" depart="122.0" from="ce1" to="ce5" type="standard_car" departLane="random" departSpeed="10" />
    <trip id="15" depart="127.0" from="ce1" to="ce2" type="standard_car" departLane="random" departSpeed="10" />
    <trip id="16" depart="133.0" from="ce8" to="ce4" type="standard_car" departLane="random" departSpeed="10" />
    <trip id="17" depart="133.0" from="ce1" to="ce7" type="standard_car" departLane="random" departSpeed="10" />
    <trip id="18" depart="135.0" from="ce1" to="ce7" type="standard_car" departLane="random" departSpeed="10" />
    <trip id="19" depart="141.0" from="ce1" to="ce5" type="standard_car" departLane="random" departSpeed="10" />
    <trip id="20" depart="141.0" from="ce1" to="ce7" type="standard_car" departLane="random" departSpeed="10" />
    <trip id="21" depart="183.0" from="ce1" to="ce7" type="standard_car" departLane="random" departSpeed="10" />
    <trip id="22" depart="184.0" from="ce1" to="ce5" type="standard_car" departLane="random" departSpeed="10" />
    <trip id="23" depart="199.0" from="ce1" to="ce5" type="standard_car" departLane="random" departSpeed="10" />
    <trip id="24" depart="199.0" from="ce1" to="ce4" type="standard_car" departLane="random" departSpeed="10" />
    <trip id="25" depart="201.0" from="ce1" to="ce7" type="standard_car" departLane="random" departSpeed="10" />
    <trip id="26" depart="203.0" from="ce1" to="ce4" type="standard_car" departLane="random" departSpeed="10" />
    <trip id="27" depart="204.0" from="ce8" to="ce5" type="standard_car" departLane="random" departSpeed="10" />
    <trip id="28" depart="216.0" from="ce1" to="ce4" type="standard_car" departLane="random" departSpeed="10" />
    <trip id="29" depart="223.0" from="ce8" to="ce2" type="standard_car" departLane="random" departSpeed="10" />
    <trip id="30" depart="225.0" from="ce6" to="ce7" type="standard_car" departLane="random" departSpeed="10" />
    <trip id="31" depart="231.0" from="ce6" to="ce7" type="standard_car" departLane="random" departSpeed="10" />
    <trip id="32" depart="237.0" from="ce8" to="ce2" type="standard_car" departLane="random" departSpeed="10" />
    <trip id="33" depart="244.0" from="ce1" to="ce4" type="standard_car" departLane="random" departSpeed="10" />
    <trip id="34" depart="245.0" from="ce1" to="ce5" type="standard_car" departLane="random" departSpeed="10" />
    <trip id="35" depart="265.0" from="ce1" to="ce5" type="standard_car" departLane="random" departSpeed="10" />
    <trip id="36" depart="267.0" from="ce1" to="ce5" type="standard_car" departLane="random" departSpeed="10" />
    <trip id="37" depart="278.0" from="ce8" to="ce4" type="standard_car" departLane="random" departSpeed="10" />
    <trip id="38" depart="286.0" from="ce1" to="ce5" type="standard_car" departLane="random" departSpeed="10" />
    <trip id="39" depart="289.0" from="ce6" to="ce4" type="standard_car" departLane="random" departSpeed="10" />
    <trip id="40" depart="289.0" from="ce1" to="ce7" type="standard_car" departLane="random" departSpeed="10" />
    <trip id="41" depart="296.0" from="ce6" to="ce4" type="standard_car" departLane="random" departSpeed="10" />
    <trip id="42" depart="298.0" from="ce1" to="ce2" type="standard_car" departLane="random" departSpeed="10" />
    <trip id="43" depart="300.0" from="ce1" to="ce7" type="standard_car" departLane="random" departSpeed="10" />
    <trip id="44" depart="301.0" from="ce1" to="ce7" type="standard_car" departLane="random" departSpeed="10" />
    <trip id="45" depart="314.0" from="ce1" to="ce7" type="standard_car" departLane="random" departSpeed="10" />
    <trip id="46" depart="342.0" from="ce6" to="ce7" type="standard_car" departLane="random" departSpeed="10" />
    <trip id="47" depart="353.0" from="ce1" to="ce7" type="standard_car" departLane="random" departSpeed="10" />
    <trip id="48" depart="359.0" from="ce1" to="ce4" type="standard_car" departLane="random" departSpeed="10" />
    <trip id="49" depart="363.0" from="ce1" to="ce2" type="standard_car" departLane="random" departSpeed="10" />
    <trip id="50" depart="364.0" from="ce1" to="ce4" type="standard_car" departLane="random" departSpeed="10" />
    <trip id="51" depart="370.0" from="ce1" to="ce4" type="standard_car" departLane="random" departSpeed="10" />
    <trip id="52" depart="371.0" from="ce1" to="ce5" type="standard_car" departLane="random" departSpeed="10" />
    <trip id="53" depart="382.0" from="ce6" to="ce7" type="standard_car" departLane="random" departSpeed="10" />
    <trip id="54" depart="382.0" from="ce1" to="ce7" type="standard_car" departLane="random" departSpeed="10" />
    <trip id="55" depart="415.0" from="ce1" to="ce7" type="standard_car" departLane="random" departSpeed="10" />
    <trip id="56" depart="421.0" from="ce6" to="ce2" type="standard_car" departLane="random" departSpeed="10" />
    <trip id="57" depart="427.0" from="ce1" to="ce4" type="standard_car" departLane="random" departSpeed="10" />
    <trip id="58" depart="430.0" from="ce1" to="ce4" type="standard_car" departLane="random" departSpeed="10" />
    <trip id="59" depart="447.0" from="ce1" to="ce4" type="standard_car" departLane="random" departSpeed="10" />
    <trip id="60" depart="468.0" from="ce6" to="ce2" type="standard_car" departLane="random" departSpeed="10" />
    <trip id="61" depart="470.0" from="ce1" to="ce2" type="standard_car" departLane="random" departSpeed="10" />
    <trip id="62" depart="474.0" from="ce1" to="ce5" type="standard_car" departLane="random" departSpeed="10" />
    <trip id="63" depart="482.0" from="ce1" to="ce7" type="standard_car" departLane="random" departSpeed="10" />
    <trip id="64" depart="487.0" from="ce6" to="ce7" type="standard_car" departLane="random" departSpeed="10" />
    <trip id="65" depart="489.0" from="ce1" to="ce4" type="standard_car" departLane="random" departSpeed="10" />
    <trip id="66" depart="492.0" from="ce1" to="ce2" type="standard_car" departLane="random" departSpeed="10" />
    <trip id="67" depart="501.0" from="ce1" to="ce7" type="standard_car" departLane="random" departSpeed="10" />
    <trip id="68" depart="502.0" from="ce6" to="ce4" type="standard_car" departLane="random" departSpeed="10" />
    <trip id="69" depart="507.0" from="ce1" to="ce7" type="standard_car" departLane="random" departSpeed="10" />
    <trip id="70" depart="518.0" from="ce6" to="ce7" type="standard_car" departLane="random" departSpeed="10" />
    <trip id="71" depart="526.0" from="ce1" to="ce5" type="standard_car" departLane="random" departSpeed="10" />
    <trip id="72" depart="542.0" from="ce6" to="ce4" type="standard_car" departLane="random" departSpeed="10" />
    <trip id="73" depart="543.0" from="ce1" to="ce5" type="standard_car" departLane="random" departSpeed="10" />
    <trip id="74" depart="543.0" from="ce6" to="ce4" type="standard_car" departLane="random" departSpeed="10" />
    <trip id="75" depart="545.0" from="ce6" to="ce2" type="standard_car" departLane="random" departSpeed="10" />
    <trip id="76" depart="546.0" from="ce6" to="ce7" type="standard_car" departLane="random" departSpeed="10" />
    <trip id="77" depart="559.0" from="ce8" to="ce2" type="standard_car" departLane="random" departSpeed="10" />
    <trip id="78" depart="565.0" from="ce6" to="ce2" type="standard_car" departLane="random" departSpeed="10" />
    <trip id="79" depart="566.0" from="ce8" to="ce4" type="standard_car" departLane="random" departSpeed="10" />
    <trip id="80" depart="572.0" from="ce1" to="ce5" type="standard_car" departLane="random" departSpeed="10" />
    <trip id="81" depart="589.0" from="ce6" to="ce4" type="standard_car" departLane="random" departSpeed="10" />
    <trip id="82" depart="592.0" from="ce6" to="ce2" type="standard_car" departLane="random" departSpeed="10" />
    <trip id="83" depart="593.0" from="ce1" to="ce7" type="standard_car" departLane="random" departSpeed="10" />
    <trip id="84" depart="608.0" from="ce1" to="ce5" type="standard_car" departLane="random" departSpeed="10" />
    <trip id="85" depart="616.0" from="ce1" to="ce5" type="standard_car" departLane="random" departSpeed="10" />
    <trip id="86" depart="631.0" from="ce1" to="ce5" type="standard_car" departLane="random" departSpeed="10" />
    <trip id="87" depart="645.0" from="ce6" to="ce4" type="standard_car" departLane="random" departSpeed="10" />
    <trip id="88" depart="657.0" from="ce1" to="ce7" type="standard_car" departLane="random" departSpeed="10" />
    <trip id="89" depart="670.0" from="ce1" to="ce5" type="standard_car" departLane="random" departSpeed="10" />
    <trip id="90" depart="670.0" from="ce1" to="ce4" type="standard_car" departLane="random" departSpeed="10" />
    <trip id="91" depart="679.0" from="ce3" to="ce7" type="standard_car" departLane="random" departSpeed="10" />
    <trip id="92" depart="683.0" from="ce1" to="ce5" type="standard_car" departLane="random" departSpeed="10" />
    <trip id="93" depart="684.0" from="ce8" to="ce5" type="standard_car" departLane="random" departSpeed="10" />
    <trip id="94" depart="689.0" from="ce1" to="ce7" type="standard_car" departLane="random" departSpeed="10" />
    <trip id="95" depart="710.0" from="ce1" to="ce7" type="standard_car" departLane="random" departSpeed="10" />
    <trip id="96" depart="711.0" from="ce3" to="ce7" type="standard_car" departLane="random" departSpeed="10" />
    <trip id="97" depart="715.0" from="ce1" to="ce7" type="standard_car" departLane="random" departSpeed="10" />
    <trip id="98" depart="716.0" from="ce1" to="ce7" type="standard_car" departLane="random" departSpeed="10" />
    <trip id="99" depart="727.0" from="ce6" to="ce4" type="standard_car" departLane="random" departSpeed="10" />
    <trip id="100" depart="738.0" from="ce1" to="ce2" type="standard_car" departLane="random" departSpeed="10" />
    <trip id="101" depart="740.0" from="ce6" to="ce4" type="standard_car" departLane="random" departSpeed="10" />
    <trip id="102" depart="746.0" from="ce6" to="ce7" type="standard_car" departLane="random" departSpeed="10" />
    <trip id="103" depart="752.0" from="ce1" to="ce4" type="standard_car" departLane="random" departSpeed="10" />
    <trip id="104" depart="757.0" from="ce6" to="ce4" type="standard_car" departLane="random" departSpeed="10" />
    <trip id="105" depart="757.0" from="ce1" to="ce4" type="standard_car" departLane="random" departSpeed="10" />
    <trip id="106" depart="772.0" from="ce6" to="ce4" type="standard_car" departLane="random" departSpeed="10" />
    <trip id="107" depart="777.0" from="ce1" to="ce4" type="standard_car" departLane="random" departSpeed="10" />
    <trip id="108" depart="781.0" from="ce1" to="ce5" type="standard_car" departLane="random" departSpeed="10" />
    <trip id="109" depart="793.0" from="ce1" to="ce7" type="standard_car" departLane="random" departSpeed="10" />
    <trip id="110" depart="797.0" from="ce1" to="ce7" type="standard_car" departLane="random" departSpeed="10" />
    <trip id="111" depart="802.0" from="ce6" to="ce4" type="standard_car" departLane="random" departSpeed="10" />
    <trip id="112" depart="823.0" from="ce3" to="ce5" type="standard_car" departLane="random" departSpeed="10" />
    <trip id="113" depart="837.0" from="ce1" to="ce4" type="standard_car" departLane="random" departSpeed="10" />
    <trip id="114" depart="843.0" from="ce1" to="ce4" type="standard_car" departLane="random" departSpeed="10" />
    <trip id="115" depart="846.0" from="ce1" to="ce4" type="standard_car" departLane="random" departSpeed="10" />
    <trip id="116" depart="848.0" from="ce1" to="ce5" type="standard_car" departLane="random" departSpeed="10" />
    <trip id="117" depart="851.0" from="ce1" to="ce2" type="standard_car" departLane="random" departSpeed="10" />
    <trip id="118" depart="857.0" from="ce1" to="ce5" type="standard_car" departLane="random" departSpeed="10" />
    <trip id="119" depart="858.0" from="ce1" to="ce5" type="standard_car" departLane="random" departSpeed="10" />
    <trip id="120" depart="864.0" from="ce1" to="ce5" type="standard_car" departLane="random" departSpeed="10" />
    <trip id="121" depart="883.0" from="ce6" to="ce7" type="standard_car" departLane="random" departSpeed="10" />
    <trip id="122" depart="939.0" from="ce1" to="ce5" type="standard_car" departLane="random" departSpeed="10" />
    <trip id="123" depart="940.0" from="ce1" to="ce4" type="standard_car" departLane="random" departSpeed="10" />
    <trip id="124" depart="941.0" from="ce6" to="ce2" type="standard_car" departLane="random" departSpeed="10" />
    <trip id="125" depart="950.0" from="ce6" to="ce2" type="standard_car" departLane="random" departSpeed="10" />
    <trip id="126" depart="952.0" from="ce8" to="ce7" type="standard_car" departLane="random" departSpeed="10" />
    <trip id="127" depart="961.0" from="ce8" to="ce5" type="standard_car" departLane="random" departSpeed="10" />
    <trip id="128" depart="962.0" from="ce1" to="ce4" type="standard_car" departLane="random" departSpeed="10" />
    <trip id="129" depart="972.0" from="ce1" to="ce4" type="standard_car" departLane="random" departSpeed="10" />
    <trip id="130" depart="986.0" from="ce6" to="ce4" type="standard_car" departLane="random" departSpeed="10" />
    <trip id="131" depart="988.0" from="ce6" to="ce2" type="standard_car" departLane="random" departSpeed="10" />
    <trip id="132" depart="992.0" from="ce1" to="ce4" type="standard_car" departLane="random" departSpeed="10" />
    <trip id="133" depart="1017.0" from="ce8" to="ce7" type="standard_car" departLane="random" departSpeed="10" />
    <trip id="134" depart="1019.0" from="ce1" to="ce7" type="standard_car" departLane="random" departSpeed="10" />
    <trip id="135" depart="1030.0" from="ce1" to="ce5" type="standard_car" departLane="random" departSpeed="10" />
    <trip id="136" depart="1035.0" from="ce1" to="ce4" type="standard_car" departLane="random" departSpeed="10" />
    <trip id="137" depart="1036.0" from="ce1" to="ce7" type="standard_car" departLane="random" departSpeed="10" />
    <trip id="138" depart="1043.0" from="ce6" to="ce4" type="standard_car" departLane="random" departSpeed="10" />
    <trip id="139" depart="1052.0" from="ce1" to="ce5" type="standard_car" departLane="random" departSpeed="10" />
    <trip id="140" depart="1061.0" from="ce1" to="ce4" type="standard_car" departLane="random" departSpeed="10" />
    <trip id="141" depart="1067.0" from="ce6" to="ce7" type="standard_car" departLane="random" departSpeed="10" />
    <trip id="142" depart="1072.0" from="ce1" to="ce7" type="standard_car" departLane="random" departSpeed="10" />
    <trip id="143" depart="1084.0" from="ce1" to="ce4" type="standard_car" departLane="random" departSpeed="10" />
    <trip id="144" depart="1086.0" from="ce6" to="ce2" type="standard_car" departLane="random" departSpeed="10" />
    <trip id="145" depart="1088.0" from="ce1" to="ce5" type="standard_car" departLane="random" departSpeed="10" />
    <trip id="146" depart="1099.0" from="ce1" to="ce5" type="standard_car" departLane="random" departSpeed="10" />
    <trip id="147" depart="1106.0" from="ce1" to="ce7" type="standard_car" departLane="random" departSpeed="10" />
    <trip id="148" depart="1112.0" from="ce1" to="ce7" type="standard_car" departLane="random" departSpeed="10" />
    <trip id="149" depart="1118.0" from="ce1" to="ce7" type="standard_car" departLane="random" departSpeed="10" />
    <trip id="150" depart="1118.0" from="ce6" to="ce5" type="standard_car" departLane="random" departSpeed="10" />
    <trip id="151" depart="1124.0" from="ce6" to="ce7" type="standard_car" departLane="random" departSpeed="10" />
    <trip id="152" depart="1126.0" from="ce6" to="ce4" type="standard_car" departLane="random" departSpeed="10" />
    <trip id="153" depart="1130.0" from="ce8" to="ce4" type="standard_car" departLane="random" departSpeed="10" />
    <trip id="154" depart="1139.0" from="ce1" to="ce7" type="standard_car" departLane="random" departSpeed="10" />
    <trip id="155" depart="1148.0" from="ce1" to="ce7" type="standard_car" departLane="random" departSpeed="10" />
    <trip id="156" depart="1172.0" from="ce1" to="ce5" type="standard_car" departLane="random" departSpeed="10" />
    <trip id="157" depart="1185.0" from="ce1" to="ce5" type="standard_car" departLane="random" departSpeed="10" />
    <trip id="158" depart="1195.0" from="ce1" to="ce7" type="standard_car" departLane="random" departSpeed="10" />
    <trip id="159" depart="1200.0" from="ce1" to="ce5" type="standard_car" departLane="random" departSpeed="10" />
    <trip id="160" depart="1208.0" from="ce1" to="ce4" type="standard_car" departLane="random" departSpeed="10" />
    <trip id="161" depart="1210.0" from="ce1" to="ce4" type="standard_car" departLane="random" departSpeed="10" />
    <trip id="162" depart="1215.0" from="ce6" to="ce2" type="standard_car" departLane="random" departSpeed="10" />
    <trip id="163" depart="1216.0" from="ce8" to="ce7" type="standard_car" departLane="random" departSpeed="10" />
    <trip id="164" depart="1231.0" from="ce1" to="ce5" type="standard_car" departLane="random" departSpeed="10" />
    <trip id="165" depart="1232.0" from="ce1" to="ce5" type="standard_car" departLane="random" departSpeed="10" />
    <trip id="166" depart="1241.0" from="ce6" to="ce7" type="standard_car" departLane="random" departSpeed="10" />
    <trip id="167" depart="1250.0" from="ce1" to="ce7" type="standard_car" departLane="random" departSpeed="10" />
    <trip id="168" depart="1272.0" from="ce8" to="ce4" type="standard_car" departLane="random" departSpeed="10" />
    <trip id="169" depart="1288.0" from="ce1" to="ce5" type="standard_car" departLane="random" departSpeed="10" />
    <trip id="170" depart="1292.0" from="ce1" to="ce5" type="standard_car" departLane="random" departSpeed="10" />
    <trip id="171" depart="1297.0" from="ce1" to="ce4" type="standard_car" departLane="random" departSpeed="10" />
    <trip id="172" depart="1298.0" from="ce1" to="ce5" type="standard_car" departLane="random" departSpeed="10" />
    <trip id="173" depart="1304.0" from="ce1" to="ce4" type="standard_car" departLane="random" departSpeed="10" />
    <trip id="174" depart="1306.0" from="ce6" to="ce2" type="standard_car" departLane="random" departSpeed="10" />
    <trip id="175" depart="1314.0" from="ce1" to="ce7" type="standard_car" departLane="random" departSpeed="10" />
    <trip id="176" depart="1316.0" from="ce6" to="ce2" type="standard_car" departLane="random" departSpeed="10" />
    <trip id="177" depart="1329.0" from="ce1" to="ce5" type="standard_car" departLane="random" departSpeed="10" />
    <trip id="178" depart="1330.0" from="ce6" to="ce4" type="standard_car" departLane="random" departSpeed="10" />
    <trip id="179" depart="1384.0" from="ce8" to="ce2" type="standard_car" departLane="random" departSpeed="10" />
    <trip id="180" depart="1387.0" from="ce6" to="ce2" type="standard_car" departLane="random" departSpeed="10" />
    <trip id="181" depart="1391.0" from="ce1" to="ce2" type="standard_car" departLane="random" departSpeed="10" />
    <trip id="182" depart="1403.0" from="ce1" to="ce7" type="standard_car" departLane="random" departSpeed="10" />
    <trip id="183" depart="1405.0" from="ce1" to="ce7" type="standard_car" departLane="random" departSpeed="10" />
    <trip id="184" depart="1408.0" from="ce1" to="ce5" type="standard_car" departLane="random" departSpeed="10" />
    <trip id="185" depart="1421.0" from="ce8" to="ce5" type="standard_car" departLane="random" departSpeed="10" />
    <trip id="186" depart="1426.0" from="ce6" to="ce5" type="standard_car" departLane="random" departSpeed="10" />
    <trip id="187" depart="1426.0" from="ce1" to="ce2" type="standard_car" departLane="random" departSpeed="10" />
    <trip id="188" depart="1433.0" from="ce8" to="ce4" type="standard_car" departLane="random" departSpeed="10" />
    <trip id="189" depart="1435.0" from="ce1" to="ce5" type="standard_car" departLane="random" departSpeed="10" />
    <trip id="190" depart="1441.0" from="ce1" to="ce5" type="standard_car" departLane="random" departSpeed="10" />
    <trip id="191" depart="1442.0" from="ce8" to="ce7" type="standard_car" departLane="random" departSpeed="10" />
    <trip id="192" depart="1450.0" from="ce6" to="ce4" type="standard_car" departLane="random" departSpeed="10" />
    <trip id="193" depart="1455.0" from="ce8" to="ce4" type="standard_car" departLane="random" departSpeed="10" />
    <trip id="194" depart="1459.0" from="ce6" to="ce2" type="standard_car" departLane="random" departSpeed="10" />
    <trip id="195" depart="1471.0" from="ce1" to="ce7" type="standard_car" departLane="random" departSpeed="10" />
    <trip id="196" depart="1475.0" from="ce6" to="ce7" type="standard_car" departLane="random" departSpeed="10" />
    <trip id="197" depart="1485.0" from="ce6" to="ce2" type="standard_car" departLane="random" departSpeed="10" />
    <trip id="198" depart="1487.0" from="ce1" to="ce2" type="standard_car" departLane="random" departSpeed="10" />
    <trip id="199" depart="1505.0" from="ce1" to="ce4" type="standard_car" departLane="random" departSpeed="10" />
    <trip id="200" depart="1507.0" from="ce6" to="ce4" type="standard_car" departLane="random" departSpeed="10" />
    <trip id="201" depart="1508.0" from="ce1" to="ce7" type="standard_car" departLane="random" departSpeed="10" />
    <trip id="202" depart="1508.0" from="ce6" to="ce2" type="standard_car" departLane="random" departSpeed="10" />
    <trip id="203" depart="1531.0" from="ce1" to="ce2" type="standard_car" departLane="random" departSpeed="10" />
    <trip id="204" depart="1534.0" from="ce6" to="ce4" type="standard_car" departLane="random" departSpeed="10" />
    <trip id="205" depart="1548.0" from="ce1" to="ce2" type="standard_car" departLane="random" departSpeed="10" />
    <trip id="206" depart="1550.0" from="ce1" to="ce7" type="standard_car" departLane="random" departSpeed="10" />
    <trip id="207" depart="1555.0" from="ce1" to="ce7" type="standard_car" departLane="random" departSpeed="10" />
    <trip id="208" depart="1568.0" from="ce1" to="ce4" type="standard_car" departLane="random" departSpeed="10" />
    <trip id="209" depart="1574.0" from="ce6" to="ce4" type="standard_car" departLane="random" departSpeed="10" />
    <trip id="210" depart="1578.0" from="ce1" to="ce5" type="standard_car" departLane="random" departSpeed="10" />
    <trip id="211" depart="1579.0" from="ce6" to="ce2" type="standard_car" departLane="random" departSpeed="10" />
    <trip id="212" depart="1580.0" from="ce1" to="ce5" type="standard_car" departLane="random" departSpeed="10" />
    <trip id="213" depart="1582.0" from="ce8" to="ce2" type="standard_car" departLane="random" departSpeed="10" />
    <trip id="214" depart="1592.0" from="ce6" to="ce2" type="standard_car" departLane="random" departSpeed="10" />
    <trip id="215" depart="1602.0" from="ce1" to="ce4" type="standard_car" departLane="random" departSpeed="10" />
    <trip id="216" depart="1604.0" from="ce1" to="ce5" type="standard_car" departLane="random" departSpeed="10" />
    <trip id="217" depart="1607.0" from="ce1" to="ce5" type="standard_car" departLane="random" departSpeed="10" />
    <trip id="218" depart="1615.0" from="ce6" to="ce7" type="standard_car" departLane="random" departSpeed="10" />
    <trip id="219" depart="1616.0" from="ce1" to="ce5" type="standard_car" departLane="random" departSpeed="10" />
    <trip id="220" depart="1630.0" from="ce1" to="ce4" type="standard_car" departLane="random" departSpeed="10" />
    <trip id="221" depart="1633.0" from="ce1" to="ce4" type="standard_car" departLane="random" departSpeed="10" />
    <trip id="222" depart="1633.0" from="ce1" to="ce7" type="standard_car" departLane="random" departSpeed="10" />
    <trip id="223" depart="1706.0" from="ce6" to="ce7" type="standard_car" departLane="random" departSpeed="10" />
    <trip id="224" depart="1708.0" from="ce6" to="ce7" type="standard_car" departLane="random" departSpeed="10" />
    <trip id="225" depart="1725.0" from="ce1" to="ce7" type="standard_car" departLane="random" departSpeed="10" />
    <trip id="226" depart="1728.0" from="ce1" to="ce7" type="standard_car" departLane="random" departSpeed="10" />
    <trip id="227" depart="1729.0" from="ce1" to="ce4" type="standard_car" departLane="random" departSpeed="10" />
    <trip id="228" depart="1738.0" from="ce1" to="ce2" type="standard_car" departLane="random" departSpeed="10" />
    <trip id="229" depart="1741.0" from="ce1" to="ce2" type="standard_car" departLane="random" departSpeed="10" />
    <trip id="230" depart="1741.0" from="ce1" to="ce2" type="standard_car" departLane="random" departSpeed="10" />
    <trip id="231" depart="1747.0" from="ce8" to="ce2" type="standard_car" departLane="random" departSpeed="10" />
    <trip id="232" depart="1755.0" from="ce8" to="ce5" type="standard_car" departLane="random" departSpeed="10" />
    <trip id="233" depart="1756.0" from="ce6" to="ce4" type="standard_car" departLane="random" departSpeed="10" />
    <trip id="234" depart="1757.0" from="ce6" to="ce7" type="standard_car" departLane="random" departSpeed="10" />
    <trip id="235" depart="1774.0" from="ce1" to="ce5" type="standard_car" departLane="random" departSpeed="10" />
    <trip id="236" depart="1775.0" from="ce1" to="ce4" type="standard_car" departLane="random" departSpeed="10" />
    <trip id="237" depart="1775.0" from="ce1" to="ce5" type="standard_car" departLane="random" departSpeed="10" />
    <trip id="238" depart="1776.0" from="ce6" to="ce2" type="standard_car" departLane="random" departSpeed="10" />
    <trip id="239" depart="1784.0" from="ce6" to="ce4" type="standard_car" departLane="random" departSpeed="10" />
    <trip id="240" depart="1785.0" from="ce6" to="ce5" type="standard_car" departLane="random" departSpeed="10" />
    <trip id="241" depart="1790.0" from="ce1" to="ce2" type="standard_car" departLane="random" departSpeed="10" />
    <trip id="242" depart="1793.0" from="ce1" to="ce2" type="standard_car" departLane="random" departSpeed="10" />
    <trip id="243" depart="1806.0" from="ce1" to="ce2" type="standard_car" departLane="random" departSpeed="10" />
    <trip id="244" depart="1816.0" from="ce1" to="ce5" type="standard_car" departLane="random" departSpeed="10" />
    <trip id="245" depart="1820.0" from="ce1" to="ce5" type="standard_car" departLane="random" departSpeed="10" />
    <trip id="246" depart="1828.0" from="ce8" to="ce5" type="standard_car" departLane="random" departSpeed="10" />
    <trip id="247" depart="1830.0" from="ce1" to="ce7" type="standard_car" departLane="random" departSpeed="10" />
    <trip id="248" depart="1836.0" from="ce1" to="ce7" type="standard_car" departLane="random" departSpeed="10" />
    <trip id="249" depart="1841.0" from="ce1" to="ce7" type="standard_car" departLane="random" departSpeed="10" />
    <trip id="250" depart="1853.0" from="ce6" to="ce2" type="standard_car" departLane="random" departSpeed="10" />
    <trip id="251" depart="1856.0" from="ce1" to="ce7" type="standard_car" departLane="random" departSpeed="10" />
    <trip id="252" depart="1857.0" from="ce1" to="ce5" type="standard_car" departLane="random" departSpeed="10" />
    <trip id="253" depart="1858.0" from="ce1" to="ce7" type="standard_car" departLane="random" departSpeed="10" />
    <trip id="254" depart="1874.0" from="ce1" to="ce7" type="standard_car" departLane="random" departSpeed="10" />
    <trip id="255" depart="1875.0" from="ce1" to="ce4" type="standard_car" departLane="random" departSpeed="10" />
    <trip id="256" depart="1882.0" from="ce1" to="ce4" type="standard_car" departLane="random" departSpeed="10" />
    <trip id="257" depart="1886.0" from="ce1" to="ce7" type="standard_car" departLane="random" departSpeed="10" />
    <trip id="258" depart="1894.0" from="ce1" to="ce4" type="standard_car" departLane="random" departSpeed="10" />
    <trip id="259" depart="1898.0" from="ce1" to="ce5" type="standard_car" departLane="random" departSpeed="10" />
    <trip id="260" depart="1906.0" from="ce1" to="ce7" type="standard_car" departLane="random" departSpeed="10" />