<?xml version="1.0" ?>
<connections>
	<connection from="e1" to="e3" fromLane="0" toLane="0"/>
	<connection from="e1" to="ce8" fromLane="3" toLane="3"/>
	<connection from="e1" to="ce13" fromLane="0" toLane="0"/>
	<connection from="e1" to="ce13" fromLane="1" toLane="1"/>
	<connection from="e1" to="ce13" fromLane="2" toLane="2"/>
	<connection from="e2" to="ce6" fromLane="0" toLane="0"/>
	<connection from="e2" to="ce10" fromLane="0" toLane="0"/>
	<connection from="e2" to="ce10" fromLane="1" toLane="1"/>
	<connection from="e2" to="ce10" fromLane="2" toLane="2"/>
	<connection from="e2" to="ce11" fromLane="3" toLane="3"/>
	<connection from="e3" to="ce16" fromLane="0" toLane="0"/>
	<connection from="e3" to="ce17" fromLane="0" toLane="0"/>
	<connection from="e3" to="ce17" fromLane="1" toLane="1"/>
	<connection from="e3" to="ce17" fromLane="2" toLane="2"/>
	<connection from="e3" to="ce19" fromLane="3" toLane="3"/>
	<connection from="e4" to="e2" fromLane="3" toLane="3"/>
	<connection from="e4" to="ce8" fromLane="0" toLane="0"/>
	<connection from="e4" to="ce8" fromLane="1" toLane="1"/>
	<connection from="e4" to="ce8" fromLane="2" toLane="2"/>
	<connection from="e4" to="ce13" fromLane="0" toLane="0"/>
	<connection from="ce5" to="e1" fromLane="3" toLane="3"/>
	<connection from="ce5" to="ce10" fromLane="0" toLane="0"/>
	<connection from="ce5" to="ce11" fromLane="0" toLane="0"/>
	<connection from="ce5" to="ce11" fromLane="1" toLane="1"/>
	<connection from="ce5" to="ce11" fromLane="2" toLane="2"/>
	<connection from="ce7" to="e2" fromLane="0" toLane="0"/>
	<connection from="ce7" to="e3" fromLane="0" toLane="0"/>
	<connection from="ce7" to="e3" fromLane="1" toLane="1"/>
	<connection from="ce7" to="e3" fromLane="2" toLane="2"/>
	<connection from="ce7" to="ce13" fromLane="3" toLane="3"/>
	<connection from="ce9" to="e1" fromLane="0" toLane="0"/>
	<connection from="ce9" to="e1" fromLane="1" toLane="1"/>
	<connection from="ce9" to="e1" fromLane="2" toLane="2"/>
	<connection from="ce9" to="ce6" fromLane="3" toLane="3"/>
	<connection from="ce9" to="ce11" fromLane="0" toLane="0"/>
	<connection from="ce12" to="e1" fromLane="0" toLane="0"/>
	<connection from="ce12" to="ce6" fromLane="0" toLane="0"/>
	<connection from="ce12" to="ce6" fromLane="1" toLane="1"/>
	<connection from="ce12" to="ce6" fromLane="2" toLane="2"/>
	<connection from="ce12" to="ce10" fromLane="3" toLane="3"/>
	<connection from="ce14" to="e2" fromLane="0" toLane="0"/>
	<connection from="ce14" to="e2" fromLane="1" toLane="1"/>
	<connection from="ce14" to="e2" fromLane="2" toLane="2"/>
	<connection from="ce14" to="e3" fromLane="3" toLane="3"/>
	<connection from="ce14" to="ce8" fromLane="0" toLane="0"/>
	<connection from="ce15" to="e4" fromLane="3" toLane="3"/>
	<connection from="ce15" to="ce17" fromLane="0" toLane="0"/>
	<connection from="ce15" to="ce19" fromLane="0" toLane="0"/>
	<connection from="ce15" to="ce19" fromLane="1" toLane="1"/>
	<connection from="ce15" to="ce19" fromLane="2" toLane="2"/>
	<connection from="ce18" to="e4" fromLane="0" toLane="0"/>
	<connection from="ce18" to="e4" fromLane="1" toLane="1"/>
	<connection from="ce18" to="e4" fromLane="2" toLane="2"/>
	<connection from="ce18" to="ce16" fromLane="3" toLane="3"/>
	<connection from="ce18" to="ce19" fromLane="0" toLane="0"/>
	<connection from="ce20" to="e4" fromLane="0" toLane="0"/>
	<connection from="ce20" to="ce16" fromLane="0" toLane="0"/>
	<connection from="ce20" to="ce16" fromLane="1" toLane="1"/>
	<connection from="ce20" to="ce16" fromLane="2" toLane="2"/>
	<connection from="ce20" to="ce17" fromLane="3" toLane="3"/>
</connections>
