<routes>
             <vType accel="1.0" decel="4.5" id="standard_car" length="5.0" minGap="2.5" maxSpeed="25" sigma="0.5" />
                    
    <trip id="0" depart="2.0" from="ce13" to="ce24" type="standard_car" departLane="random" departSpeed="10" />
    <trip id="1" depart="33.0" from="ce15" to="ce18" type="standard_car" departLane="random" departSpeed="10" />
    <trip id="2" depart="42.0" from="ce11" to="ce18" type="standard_car" departLane="random" departSpeed="10" />
    <trip id="3" depart="62.0" from="ce20" to="ce14" type="standard_car" departLane="random" departSpeed="10" />
    <trip id="4" depart="65.0" from="ce22" to="ce14" type="standard_car" departLane="random" departSpeed="10" />
    <trip id="5" depart="66.0" from="ce15" to="ce16" type="standard_car" departLane="random" departSpeed="10" />
    <trip id="6" depart="73.0" from="ce30" to="ce18" type="standard_car" departLane="random" departSpeed="10" />
    <trip id="7" depart="74.0" from="ce11" to="ce18" type="standard_car" departLane="random" departSpeed="10" />
    <trip id="8" depart="86.0" from="ce15" to="ce25" type="standard_car" departLane="random" departSpeed="10" />
    <trip id="9" depart="87.0" from="ce11" to="ce14" type="standard_car" departLane="random" departSpeed="10" />
    <trip id="10" depart="88.0" from="ce22" to="ce14" type="standard_car" departLane="random" departSpeed="10" />
    <trip id="11" depart="89.0" from="ce22" to="ce12" type="standard_car" departLane="random" departSpeed="10" />
    <trip id="12" depart="89.0" from="ce20" to="ce21" type="standard_car" departLane="random" departSpeed="10" />
    <trip id="13" depart="91.0" from="ce11" to="ce25" type="standard_car" departLane="random" departSpeed="10" />
    <trip id="14" depart="94.0" from="ce22" to="ce16" type="standard_car" departLane="random" departSpeed="10" />
    <trip id="15" depart="94.0" from="ce11" to="ce25" type="standard_car" departLane="random" departSpeed="10" />
    <trip id="16" depart="108.0" from="ce30" to="ce27" type="standard_car" departLane="random" departSpeed="10" />
    <trip id="17" depart="140.0" from="ce30" to="ce24" type="standard_car" departLane="random" departSpeed="10" />
    <trip id="18" depart="161.0" from="ce11" to="ce24" type="standard_car" departLane="random" departSpeed="10" />
    <trip id="19" depart="162.0" from="ce15" to="ce25" type="standard_car" departLane="random" departSpeed="10" />
    <trip id="20" depart="163.0" from="ce28" to="ce24" type="standard_car" departLane="random" departSpeed="10" />
    <trip id="21" depart="165.0" from="ce26" to="ce21" type="standard_car" departLane="random" departSpeed="10" />
    <trip id="22" depart="172.0" from="ce20" to="ce18" type="standard_car" departLane="random" departSpeed="10" />
    <trip id="23" depart="206.0" from="ce28" to="ce29" type="standard_car" departLane="random" departSpeed="10" />
    <trip id="24" depart="209.0" from="ce26" to="ce12" type="standard_car" departLane="random" departSpeed="10" />
    <trip id="25" depart="211.0" from="ce22" to="ce19" type="standard_car" departLane="random" departSpeed="10" />
    <trip id="26" depart="218.0" from="ce22" to="ce24" type="standard_car" departLane="random" departSpeed="10" />
    <trip id="27" depart="229.0" from="ce30" to="ce27" type="standard_car" departLane="random" departSpeed="10" />
    <trip id="28" depart="230.0" from="ce22" to="ce18" type="standard_car" departLane="random" departSpeed="10" />
    <trip id="29" depart="282.0" from="ce30" to="ce27" type="standard_car" departLane="random" departSpeed="10" />
    <trip id="30" depart="284.0" from="ce22" to="ce27" type="standard_car" departLane="random" departSpeed="10" />
    <trip id="31" depart="291.0" from="ce30" to="ce27" type="standard_car" departLane="random" departSpeed="10" />
    <trip id="32" depart="295.0" from="ce20" to="ce29" type="standard_car" departLane="random" departSpeed="10" />
    <trip id="33" depart="307.0" from="ce20" to="ce12" type="standard_car" departLane="random" departSpeed="10" />
    <trip id="34" depart="323.0" from="ce22" to="ce14" type="standard_car" departLane="random" departSpeed="10" />
    <trip id="35" depart="327.0" from="ce26" to="ce29" type="standard_car" departLane="random" departSpeed="10" />
    <trip id="36" depart="341.0" from="ce26" to="ce21" type="standard_car" departLane="random" departSpeed="10" />
    <trip id="37" depart="342.0" from="ce15" to="ce29" type="standard_car" departLane="random" departSpeed="10" />
    <trip id="38" depart="349.0" from="ce30" to="ce19" type="standard_car" departLane="random" departSpeed="10" />
    <trip id="39" depart="349.0" from="ce30" to="ce16" type="standard_car" departLane="random" departSpeed="10" />
    <trip id="40" depart="354.0" from="ce11" to="ce19" type="standard_car" departLane="random" departSpeed="10" />
    <trip id="41" depart="358.0" from="ce26" to="ce21" type="standard_car" departLane="random" departSpeed="10" />
    <trip id="42" depart="369.0" from="ce20" to="ce21" type="standard_car" departLane="random" departSpeed="10" />
    <trip id="43" depart="372.0" from="ce20" to="ce18" type="standard_car" departLane="random" departSpeed="10" />
    <trip id="44" depart="388.0" from="ce22" to="ce18" type="standard_car" departLane="random" departSpeed="10" />
    <trip id="45" depart="392.0" from="ce30" to="ce18" type="standard_car" departLane="random" departSpeed="10" />
    <trip id="46" depart="395.0" from="ce30" to="ce16" type="standard_car" departLane="random" departSpeed="10" />
    <trip id="47" depart="406.0" from="ce20" to="ce18" type="standard_car" departLane="random" departSpeed="10" />
    <trip id="48" depart="408.0" from="ce30" to="ce14" type="standard_car" departLane="random" departSpeed="10" />
    <trip id="49" depart="416.0" from="ce30" to="ce18" type="standard_car" departLane="random" departSpeed="10" />
    <trip id="50" depart="429.0" from="ce28" to="ce21" type="standard_car" departLane="random" departSpeed="10" />
    <trip id="51" depart="437.0" from="ce11" to="ce25" type="standard_car" departLane="random" departSpeed="10" />
    <trip id="52" depart="438.0" from="ce17" to="ce14" type="standard_car" departLane="random" departSpeed="10" />
    <trip id="53" depart="445.0" from="ce22" to="ce24" type="standard_car" departLane="random" departSpeed="10" />
    <trip id="54" depart="449.0" from="ce11" to="ce24" type="standard_car" departLane="random" departSpeed="10" />
    <trip id="55" depart="498.0" from="ce28" to="ce14" type="standard_car" departLane="random" departSpeed="10" />
    <trip id="56" depart="513.0" from="ce26" to="ce18" type="standard_car" departLane="random" departSpeed="10" />
    <trip id="57" depart="526.0" from="ce15" to="ce29" type="standard_car" departLane="random" departSpeed="10" />
    <trip id="58" depart="532.0" from="ce22" to="ce29" type="standard_car" departLane="random" departSpeed="10" />
    <trip id="59" depart="535.0" from="ce28" to="ce12" type="standard_car" departLane="random" departSpeed="10" />
    <trip id="60" depart="551.0" from="ce15" to="ce27" type="standard_car" departLane="random" departSpeed="10" />
    <trip id="61" depart="554.0" from="ce28" to="ce27" type="standard_car" departLane="random" departSpeed="10" />
    <trip id="62" depart="555.0" from="ce30" to="ce16" type="standard_car" departLane="random" departSpeed="10" />
    <trip id="63" depart="558.0" from="ce22" to="ce19" type="standard_car" departLane="random" departSpeed="10" />
    <trip id="64" depart="564.0" from="ce20" to="ce14" type="standard_car" departLane="random" departSpeed="10" />
    <trip id="65" depart="575.0" from="ce22" to="ce29" type="standard_car" departLane="random" departSpeed="10" />
    <trip id="66" depart="595.0" from="ce30" to="ce16" type="standard_car" departLane="random" departSpeed="10" />
    <trip id="67" depart="609.0" from="ce30" to="ce25" type="standard_car" departLane="random" departSpeed="10" />
    <trip id="68" depart="616.0" from="ce13" to="ce27" type="standard_car" departLane="random" departSpeed="10" />
    <trip id="69" depart="633.0" from="ce20" to="ce14" type="standard_car" departLane="random" departSpeed="10" />
    <trip id="70" depart="635.0" from="ce28" to="ce29" type="standard_car" departLane="random" departSpeed="10" />
    <trip id="71" depart="646.0" from="ce23" to="ce27" type="standard_car" departLane="random" departSpeed="10" />
    <trip id="72" depart="662.0" from="ce22" to="ce16" type="standard_car" departLane="random" departSpeed="10" />
    <trip id="73" depart="668.0" from="ce22" to="ce16" type="standard_car" departLane="random" departSpeed="10" />
    <trip id="74" depart="671.0" from="ce13" to="ce29" type="standard_car" departLane="random" departSpeed="10" />
    <trip id="75" depart="709.0" from="ce22" to="ce24" type="standard_car" departLane="random" departSpeed="10" />
    <trip id="76" depart="711.0" from="ce30" to="ce16" type="standard_car" departLane="random" departSpeed="10" />
    <trip id="77" depart="727.0" from="ce28" to="ce18" type="standard_car" departLane="random" departSpeed="10" />
    <trip id="78" depart="734.0" from="ce28" to="ce14" type="standard_car" departLane="random" departSpeed="10" />
    <trip id="79" depart="736.0" from="ce22" to="ce14" type="standard_car" departLane="random" departSpeed="10" />
    <trip id="80" depart="738.0" from="ce11" to="ce29" type="standard_car" departLane="random" departSpeed="10" />
    <trip id="81" depart="738.0" from="ce22" to="ce14" type="standard_car" departLane="random" departSpeed="10" />
    <trip id="82" depart="746.0" from="ce26" to="ce29" type="standard_car" departLane="random" departSpeed="10" />
    <trip id="83" depart="747.0" from="ce22" to="ce24" type="standard_car" departLane="random" departSpeed="10" />
    <trip id="84" depart="759.0" from="ce28" to="ce24" type="standard_car" departLane="random" departSpeed="10" />
    <trip id="85" depart="759.0" from="ce23" to="ce12" type="standard_car" departLane="random" departSpeed="10" />
    <trip id="86" depart="759.0" from="ce15" to="ce18" type="standard_car" departLane="random" departSpeed="10" />
    <trip id="87" depart="766.0" from="ce22" to="ce24" type="standard_car" departLane="random" departSpeed="10" />
    <trip id="88" depart="773.0" from="ce20" to="ce12" type="standard_car" departLane="random" departSpeed="10" />
    <trip id="89" depart="773.0" from="ce26" to="ce24" type="standard_car" departLane="random" departSpeed="10" />
    <trip id="90" depart="779.0" from="ce26" to="ce24" type="standard_car" departLane="random" departSpeed="10" />
    <trip id="91" depart="782.0" from="ce30" to="ce19" type="standard_car" departLane="random" departSpeed="10" />
    <trip id="92" depart="785.0" from="ce28" to="ce21" type="standard_car" departLane="random" departSpeed="10" />
    <trip id="93" depart="787.0" from="ce17" to="ce29" type="standard_car" departLane="random" departSpeed="10" />
    <trip id="94" depart="796.0" from="ce15" to="ce25" type="standard_car" departLane="random" departSpeed="10" />
    <trip id="95" depart="816.0" from="ce30" to="ce14" type="standard_car" departLane="random" departSpeed="10" />
    <trip id="96" depart="825.0" from="ce15" to="ce24" type="standard_car" departLane="random" departSpeed="10" />
    <trip id="97" depart="827.0" from="ce22" to="ce25" type="standard_car" departLane="random" departSpeed="10" />
    <trip id="98" depart="834.0" from="ce28" to="ce24" type="standard_car" departLane="random" departSpeed="10" />
    <trip id="99" depart="843.0" from="ce20" to="ce12" type="standard_car" departLane="random" departSpeed="10" />
    <trip id="100" depart="846.0" from="ce20" to="ce16" type="standard_car" departLane="random" departSpeed="10" />
    <trip id="101" depart="854.0" from="ce20" to="ce24" type="standard_car" departLane="random" departSpeed="10" />
    <trip id="102" depart="867.0" from="ce22" to="ce18" type="standard_car" departLane="random" departSpeed="10" />
    <trip id="103" depart="878.0" from="ce30" to="ce18" type="standard_car" departLane="random" departSpeed="10" />
    <trip id="104" depart="883.0" from="ce13" to="ce29" type="standard_car" departLane="random" departSpeed="10" />
    <trip id="105" depart="884.0" from="ce20" to="ce14" type="standard_car" departLane="random" departSpeed="10" />
    <trip id="106" depart="886.0" from="ce20" to="ce29" type="standard_car" departLane="random" departSpeed="10" />
    <trip id="107" depart="889.0" from="ce30" to="ce16" type="standard_car" departLane="random" departSpeed="10" />
    <trip id="108" depart="890.0" from="ce20" to="ce18" type="standard_car" departLane="random" departSpeed="10" />
    <trip id="109" depart="903.0" from="ce11" to="ce12" type="standard_car" departLane="random" departSpeed="10" />
    <trip id="110" depart="928.0" from="ce20" to="ce16" type="standard_car" departLane="random" departSpeed="10" />
    <trip id="111" depart="938.0" from="ce13" to="ce24" type="standard_car" departLane="random" departSpeed="10" />
    <trip id="112" depart="948.0" from="ce22" to="ce14" type="standard_car" departLane="random" departSpeed="10" />
    <trip id="113" depart="951.0" from="ce20" to="ce21" type="standard_car" departLane="random" departSpeed="10" />
    <trip id="114" depart="982.0" from="ce26" to="ce29" type="standard_car" departLane="random" departSpeed="10" />
    <trip id="115" depart="989.0" from="ce13" to="ce19" type="standard_car" departLane="random" departSpeed="10" />
    <trip id="116" depart="999.0" from="ce20" to="ce29" type="standard_car" departLane="random" departSpeed="10" />
    <trip id="117" depart="999.0" from="ce20" to="ce21" type="standard_car" departLane="random" departSpeed="10" />
    <trip id="118" depart="1008.0" from="ce17" to="ce25" type="standard_car" departLane="random" departSpeed="10" />
    <trip id="119" depart="1008.0" from="ce30" to="ce27" type="standard_car" departLane="random" departSpeed="10" />
    <trip id="120" depart="1016.0" from="ce13" to="ce19" type="standard_car" departLane="random" departSpeed="10" />
    <trip id="121" depart="1026.0" from="ce11" to="ce25" type="standard_car" departLane="random" departSpeed="10" />
    <trip id="122" depart="1034.0" from="ce11" to="ce18" type="standard_car" departLane="random" departSpeed="10" />
    <trip id="123" depart="1041.0" from="ce28" to="ce29" type="standard_car" departLane="random" departSpeed="10" />
    <trip id="124" depart="1051.0" from="ce13" to="ce25" type="standard_car" departLane="random" departSpeed="10" />
    <trip id="125" depart="1052.0" from="ce28" to="ce21" type="standard_car" departLane="random" departSpeed="10" />
    <trip id="126" depart="1068.0" from="ce26" to="ce18" type="standard_car" departLane="random" departSpeed="10" />
    <trip id="127" depart="1077.0" from="ce13" to="ce29" type="standard_car" departLane="random" departSpeed="10" />
    <trip id="128" depart="1080.0" from="ce20" to="ce21" type="standard_car" departLane="random" departSpeed="10" />
    <trip id="129" depart="1086.0" from="ce20" to="ce12" type="standard_car" departLane="random" departSpeed="10" />
    <trip id="130" depart="1094.0" from="ce15" to="ce29" type="standard_car" departLane="random" departSpeed="10" />
    <trip id="131" depart="1095.0" from="ce26" to="ce18" type="standard_car" departLane="random" departSpeed="10" />
    <trip id="132" depart="1101.0" from="ce22" to="ce21" type="standard_car" departLane="random" departSpeed="10" />
    <trip id="133" depart="1115.0" from="ce15" to="ce27" type="standard_car" departLane="random" departSpeed="10" />
    <trip id="134" depart="1131.0" from="ce13" to="ce19" type="standard_car" departLane="random" departSpeed="10" />
    <trip id="135" depart="1134.0" from="ce15" to="ce25" type="standard_car" departLane="random" departSpeed="10" />
    <trip id="136" depart="1139.0" from="ce22" to="ce19" type="standard_car" departLane="random" departSpeed="10" />
    <trip id="137" depart="1146.0" from="ce28" to="ce29" type="standard_car" departLane="random" departSpeed="10" />
    <trip id="138" depart="1148.0" from="ce26" to="ce18" type="standard_car" departLane="random" departSpeed="10" />
    <trip id="139" depart="1152.0" from="ce15" to="ce24" type="standard_car" departLane="random" departSpeed="10" />
    <trip id="140" depart="1156.0" from="ce26" to="ce14" type="standard_car" departLane="random" departSpeed="10" />
    <trip id="141" depart="1165.0" from="ce13" to="ce21" type="standard_car" departLane="random" departSpeed="10" />
    <trip id="142" depart="1193.0" from="ce11" to="ce27" type="standard_car" departLane="random" departSpeed="10" />
    <trip id="143" depart="1199.0" from="ce30" to="ce25" type="standard_car" departLane="random" departSpeed="10" />
    <trip id="144" depart="1201.0" from="ce26" to="ce21" type="standard_car" departLane="random" departSpeed="10" />
    <trip id="145" depart="1201.0" from="ce11" to="ce18" type="standard_car" departLane="random" departSpeed="10" />
    <trip id="146" depart="1207.0" from="ce30" to="ce24" type="standard_car" departLane="random" departSpeed="10" />
    <trip id="147" depart="1213.0" from="ce13" to="ce12" type="standard_car" departLane="random" departSpeed="10" />
    <trip id="148" depart="1218.0" from="ce23" to="ce27" type="standard_car" departLane="random" departSpeed="10" />
    <trip id="149" depart="1227.0" from="ce15" to="ce27" type="standard_car" departLane="random" departSpeed="10" />
    <trip id="150" depart="1231.0" from="ce30" to="ce14" type="standard_car" departLane="random" departSpeed="10" />
    <trip id="151" depart="1241.0" from="ce13" to="ce16" type="standard_car" departLane="random" departSpeed="10" />
    <trip id="152" depart="1250.0" from="ce22" to="ce12" type="standard_car" departLane="random" departSpeed="10" />
    <trip id="153" depart="1253.0" from="ce22" to="ce29" type="standard_car" departLane="random" departSpeed="10" />
    <trip id="154" depart="1257.0" from="ce26" to="ce12" type="standard_car" departLane="random" departSpeed="10" />
    <trip id="155" depart="1257.0" from="ce11" to="ce18" type="standard_car" departLane="random" departSpeed="10" />
    <trip id="156" depart="1259.0" from="ce28" to="ce21" type="standard_car" departLane="random" departSpeed="10" />
    <trip id="157" depart="1260.0" from="ce20" to="ce25" type="standard_car" departLane="random" departSpeed="10" />
    <trip id="158" depart="1266.0" from="ce26" to="ce29" type="standard_car" departLane="random" departSpeed="10" />
    <trip id="159" depart="1267.0" from="ce28" to="ce14" type="standard_car" departLane="random" departSpeed="10" />
    <trip id="160" depart="1271.0" from="ce30" to="ce19" type="standard_car" departLane="random" departSpeed="10" />
    <trip id="161" depart="1271.0" from="ce17" to="ce29" type="standard_car" departLane="random" departSpeed="10" />
    <trip id="162" depart="1281.0" from="ce22" to="ce14" type="standard_car" departLane="random" departSpeed="10" />
    <trip id="163" depart="1298.0" from="ce22" to="ce19" type="standard_car" departLane="random" departSpeed="10" />
    <trip id="164" depart="1308.0" from="ce17" to="ce18" type="standard_car" departLane="random" departSpeed="10" />
    <trip id="165" depart="1309.0" from="ce11" to="ce18" type="standard_car" departLane="random" departSpeed="10" />
    <trip id="166" depart="1327.0" from="ce17" to="ce18" type="standard_car" departLane="random" departSpeed="10" />
    <trip id="167" depart="1330.0" from="ce30" to="ce16" type="standard_car" departLane="random" departSpeed="10" />
    <trip id="168" depart="1333.0" from="ce22" to="ce19" type="standard_car" departLane="random" departSpeed="10" />
    <trip id="169" depart="1334.0" from="ce13" to="ce18" type="standard_car" departLane="random" departSpeed="10" />
    <trip id="170" depart="1341.0" from="ce22" to="ce25" type="standard_car" departLane="random" departSpeed="10" />
    <trip id="171" depart="1342.0" from="ce26" to="ce14" type="standard_car" departLane="random" departSpeed="10" />
    <trip id="172" depart="1346.0" from="ce20" to="ce29" type="standard_car" departLane="random" departSpeed="10" />
    <trip id="173" depart="1348.0" from="ce23" to="ce29" type="standard_car" departLane="random" departSpeed="10" />
    <trip id="174" depart="1350.0" from="ce11" to="ce29" type="standard_car" departLane="random" departSpeed="10" />
    <trip id="175" depart="1351.0" from="ce20" to="ce24" type="standard_car" departLane="random" departSpeed="10" />
    <trip id="176" depart="1351.0" from="ce23" to="ce14" type="standard_car" departLane="random" departSpeed="10" />
    <trip id="177" depart="1358.0" from="ce20" to="ce18" type="standard_car" departLane="random" departSpeed="10" />
    <trip id="178" depart="1372.0" from="ce22" to="ce12" type="standard_car" departLane="random" departSpeed="10" />
    <trip id="179" depart="1372.0" from="ce22" to="ce12" type="standard_car" departLane="random" departSpeed="10" />
    <trip id="180" depart="1384.0" from="ce17" to="ce21" type="standard_car" departLane="random" departSpeed="10" />
    <trip id="181" depart="1385.0" from="ce28" to="ce21" type="standard_car" departLane="random" departSpeed="10" />
    <trip id="182" depart="1391.0" from="ce22" to="ce25" type="standard_car" departLane="random" departSpeed="10" />
    <trip id="183" depart="1402.0" from="ce30" to="ce12" type="standard_car" departLane="random" departSpeed="10" />
    <trip id="184" depart="1403.0" from="ce22" to="ce14" type="standard_car" departLane="random" departSpeed="10" />
    <trip id="185" depart="1410.0" from="ce11" to="ce16" type="standard_car" departLane="random" departSpeed="10" />
    <trip id="186" depart="1415.0" from="ce26" to="ce14" type="standard_car" departLane="random" departSpeed="10" />
    <trip id="187" depart="1420.0" from="ce30" to="ce18" type="standard_car" departLane="random" departSpeed="10" />
    <trip id="188" depart="1426.0" from="ce30" to="ce12" type="standard_car" departLane="random" departSpeed="10" />
    <trip id="189" depart="1430.0" from="ce13" to="ce27" type="standard_car" departLane="random" departSpeed="10" />
    <trip id="190" depart="1437.0" from="ce28" to="ce21" type="standard_car" departLane="random" departSpeed="10" />
    <trip id="191" depart="1438.0" from="ce28" to="ce18" type="standard_car" departLane="random" departSpeed="10" />
    <trip id="192" depart="1442.0" from="ce28" to="ce12" type="standard_car" departLane="random" departSpeed="10" />
    <trip id="193" depart="1442.0" from="ce30" to="ce19" type="standard_car" departLane="random" departSpeed="10" />
    <trip id="194" depart="1443.0" from="ce30" to="ce25" type="standard_car" departLane="random" departSpeed="10" />
    <trip id="195" depart="1444.0" from="ce22" to="ce18" type="standard_car" departLane="random" departSpeed="10" />
    <trip id="196" depart="1446.0" from="ce11" to="ce29" type="standard_car" departLane="random" departSpeed="10" />
    <trip id="197" depart="1452.0" from="ce23" to="ce21" type="standard_car" departLane="random" departSpeed="10" />
    <trip id="198" depart="1456.0" from="ce30" to="ce21" type="standard_car" departLane="random" departSpeed="10" />
    <trip id="199" depart="1466.0" from="ce26" to="ce21" type="standard_car" departLane="random" departSpeed="10" />
    <trip id="200" depart="1466.0" from="ce28" to="ce18" type="standard_car" departLane="random" departSpeed="10" />
    <trip id="201" depart="1467.0" from="ce17" to="ce14" type="standard_car" departLane="random" departSpeed="10" />
    <trip id="202" depart="1471.0" from="ce13" to="ce27" type="standard_car" departLane="random" departSpeed="10" />
    <trip id="203" depart="1474.0" from="ce15" to="ce29" type="standard_car" departLane="random" departSpeed="10" />
    <trip id="204" depart="1474.0" from="ce28" to="ce27" type="standard_car" departLane="random" departSpeed="10" />
    <trip id="205" depart="1482.0" from="ce30" to="ce24" type="standard_car" departLane="random" departSpeed="10" />
    <trip id="206" depart="1485.0" from="ce30" to="ce14" type="standard_car" departLane="random" departSpeed="10" />
    <trip id="207" depart="1496.0" from="ce30" to="ce18" type="standard_car" departLane="random" departSpeed="10" />
    <trip id="208" depart="1497.0" from="ce30" to="ce25" type="standard_car" departLane="random" departSpeed="10" />
    <trip id="209" depart="1498.0" from="ce26" to="ce18" type="standard_car" departLane="random" departSpeed="10" />
    <trip id="210" depart="1507.0" from="ce20" to="ce24" type="standard_car" departLane="random" departSpeed="10" />
    <trip id="211" depart="1521.0" from="ce22" to="ce14" type="standard_car" departLane="random" departSpeed="10" />
    <trip id="212" depart="1528.0" from="ce30" to="ce18" type="standard_car" departLane="random" departSpeed="10" />
    <trip id="213" depart="1530.0" from="ce22" to="ce18" type="standard_car" departLane="random" departSpeed="10" />
    <trip id="214" depart="1547.0" from="ce22" to="ce25" type="standard_car" departLane="random" departSpeed="10" />
    <trip id="215" depart="1589.0" from="ce11" to="ce16" type="standard_car" departLane="random" departSpeed="10" />
    <trip id="216" depart="1591.0" from="ce20" to="ce19" type="standard_car" departLane="random" departSpeed="10" />
    <trip id="217" depart="1593.0" from="ce15" to="ce21" type="standard_car" departLane="random" departSpeed="10" />
    <trip id="218" depart="1603.0" from="ce22" to="ce24" type="standard_car" departLane="random" departSpeed="10" />
    <trip id="219" depart="1622.0" from="ce28" to="ce29" type="standard_car" departLane="random" departSpeed="10" />
    <trip id="220" depart="1624.0" from="ce15" to="ce24" type="standard_car" departLane="random" departSpeed="10" />
    <trip id="221" depart="1628.0" from="ce22" to="ce27" type="standard_car" departLane="random" departSpeed="10" />
    <trip id="222" depart="1634.0" from="ce22" to="ce25" type="standard_car" departLane="random" departSpeed="10" />
    <trip id="223" depart="1642.0" from="ce28" to="ce21" type="standard_car" departLane="random" departSpeed="10" />
    <trip id="224" depart="1646.0" from="ce13" to="ce21" type="standard_car" departLane="random" departSpeed="10" />
    <trip id="225" depart="1657.0" from="ce15" to="ce29" type="standard_car" departLane="random" departSpeed="10" />
    <trip id="226" depart="1685.0" from="ce20" to="ce14" type="standard_car" departLane="random" departSpeed="10" />
    <trip id="227" depart="1689.0" from="ce28" to="ce16" type="standard_car" departLane="random" departSpeed="10" />
    <trip id="228" depart="1709.0" from="ce30" to="ce24" type="standard_car" departLane="random" departSpeed="10" />
    <trip id="229" depart="1720.0" from="ce26" to="ce24" type="standard_car" departLane="random" departSpeed="10" />
    <trip id="230" depart="1725.0" from="ce26" to="ce18" type="standard_car" departLane="random" departSpeed="10" />
    <trip id="231" depart="1731.0" from="ce28" to="ce29" type="standard_car" departLane="random" departSpeed="10" />
    <trip id="232" depart="1742.0" from="ce26" to="ce21" type="standard_car" departLane="random" departSpeed="10" />
    <trip id="233" depart="1744.0" from="ce22" to="ce21" type="standard_car" departLane="random" departSpeed="10" />
    <trip id="234" depart="1747.0" from="ce22" to="ce29" type="standard_car" departLane="random" departSpeed="10" />
    <trip id="235" depart="1751.0" from="ce30" to="ce18" type="standard_car" departLane="random" departSpeed="10" />
    <trip id="236" depart="1753.0" from="ce30" to="ce25" type="standard_car" departLane="random" departSpeed="10" />
    <trip id="237" depart="1760.0" from="ce22" to="ce27" type="standard_car" departLane="random" departSpeed="10" />
    <trip id="238" depart="1761.0" from="ce30" to="ce18" type="standard_car" departLane="random" departSpeed="10" />
    <trip id="239" depart="1777.0" from="ce11" to="ce18" type="standard_car" departLane="random" departSpeed="10" />
    <trip id="240" depart="1783.0" from="ce13" to="ce19" type="standard_car" departLane="random" departSpeed="10" />
    <trip id="241" depart="1784.0" from="ce13" to="ce18" type="standard_car" departLane="random" departSpeed="10" />
    <trip id="242" depart="1789.0" from="ce28" to="ce25" type="standard_car" departLane="random" departSpeed="10" />
    <trip id="243" depart="1801.0" from="ce11" to="ce19" type="standard_car" departLane="random" departSpeed="10" />
    <trip id="244" depart="1817.0" from="ce22" to="ce25" type="standard_car" departLane="random" departSpeed="10" />
    <trip id="245" depart="1819.0" from="ce28" to="ce27" type="standard_car" departLane="random" departSpeed="10" />
    <trip id="246" depart="1827.0" from="ce28" to="ce18" type="standard_car" departLane="random" departSpeed="10" />
    <trip id="247" depart="1833.0" from="ce11" to="ce21" type="standard_car" departLane="random" departSpeed="10" />
    <trip id="248" depart="1848.0" from="ce11" to="ce19" type="standard_car" departLane="random" departSpeed="10" />
    <trip id="249" depart="1866.0" from="ce22" to="ce14" type="standard_car" departLane="random" departSpeed="10" />
    <trip id="250" depart="1868.0" from="ce15" to="ce21" type="standard_car" departLane="random" departSpeed="10" />
    <trip id="251" depart="1870.0" from="ce15" to="ce21" type="standard_car" departLane="random" departSpeed="10" />
    <trip id="252" depart="1872.0" from="ce26" to="ce29" type="standard_car" departLane="random" departSpeed="10" />
    <trip id="253" depart="1874.0" from="ce15" to="ce16" type="standard_car" departLane="random" departSpeed="10" />
    <trip id="254" depart="1882.0" from="ce22" to="ce27" type="standard_car" departLane="random" departSpeed="10" />
    <trip id="255" depart="1890.0" from="ce13" to="ce21" type="standard_car" departLane="random" departSpeed="10" />
    <trip id="256" depart="1895.0" from="ce22" to="ce25" type="standard_car" departLane="random" departSpeed="10" />