<?xml version="1.0" ?>
<tlLogics>
	<tlLogic id="TL1" type="static" programID="0" offset="0">
		<phase duration="100" state="GGGGrrrrrrGGGGrrrrrr"/>
		<phase duration="100" state="yyyyrrrrrryyyyrrrrrr"/>
		<phase duration="100" state="rrrrrrrrrrrrrrrrrrrr"/>
		<phase duration="100" state="rrrrGrrrrrrrrrGrrrrr"/>
		<phase duration="100" state="rrrryrrrrrrrrryrrrrr"/>
		<phase duration="100" state="rrrrrrrrrrrrrrrrrrrr"/>
		<phase duration="100" state="rrrrrGGGGrrrrrrGGGGr"/>
		<phase duration="100" state="rrrrryyyyrrrrrryyyyr"/>
		<phase duration="100" state="rrrrrrrrrrrrrrrrrrrr"/>
		<phase duration="100" state="rrrrrrrrrGrrrrrrrrrG"/>
		<phase duration="100" state="rrrrrrrrryrrrrrrrrry"/>
		<phase duration="100" state="rrrrrrrrrrrrrrrrrrrr"/>
		<phase duration="100" state="GGGGGrrrrrrrrrrrrrrr"/>
		<phase duration="100" state="yyyyyrrrrrrrrrrrrrrr"/>
		<phase duration="100" state="rrrrrrrrrrrrrrrrrrrr"/>
		<phase duration="100" state="rrrrrGGGGGrrrrrrrrrr"/>
		<phase duration="100" state="rrrrryyyyyrrrrrrrrrr"/>
		<phase duration="100" state="rrrrrrrrrrrrrrrrrrrr"/>
		<phase duration="100" state="rrrrrrrrrrGGGGGrrrrr"/>
		<phase duration="100" state="rrrrrrrrrryyyyyrrrrr"/>
		<phase duration="100" state="rrrrrrrrrrrrrrrrrrrr"/>
		<phase duration="100" state="rrrrrrrrrrrrrrrGGGGG"/>
		<phase duration="100" state="rrrrrrrrrrrrrrryyyyy"/>
		<phase duration="100" state="rrrrrrrrrrrrrrrrrrrr"/>
	</tlLogic>
	<tlLogic id="TL2" type="static" programID="0" offset="0">
		<phase duration="100" state="GGGGrrrrrrGGGGrrrrrr"/>
		<phase duration="100" state="yyyyrrrrrryyyyrrrrrr"/>
		<phase duration="100" state="rrrrrrrrrrrrrrrrrrrr"/>
		<phase duration="100" state="rrrrGrrrrrrrrrGrrrrr"/>
		<phase duration="100" state="rrrryrrrrrrrrryrrrrr"/>
		<phase duration="100" state="rrrrrrrrrrrrrrrrrrrr"/>
		<phase duration="100" state="rrrrrGGGGrrrrrrGGGGr"/>
		<phase duration="100" state="rrrrryyyyrrrrrryyyyr"/>
		<phase duration="100" state="rrrrrrrrrrrrrrrrrrrr"/>
		<phase duration="100" state="rrrrrrrrrGrrrrrrrrrG"/>
		<phase duration="100" state="rrrrrrrrryrrrrrrrrry"/>
		<phase duration="100" state="rrrrrrrrrrrrrrrrrrrr"/>
		<phase duration="100" state="GGGGGrrrrrrrrrrrrrrr"/>
		<phase duration="100" state="yyyyyrrrrrrrrrrrrrrr"/>
		<phase duration="100" state="rrrrrrrrrrrrrrrrrrrr"/>
		<phase duration="100" state="rrrrrGGGGGrrrrrrrrrr"/>
		<phase duration="100" state="rrrrryyyyyrrrrrrrrrr"/>
		<phase duration="100" state="rrrrrrrrrrrrrrrrrrrr"/>
		<phase duration="100" state="rrrrrrrrrrGGGGGrrrrr"/>
		<phase duration="100" state="rrrrrrrrrryyyyyrrrrr"/>
		<phase duration="100" state="rrrrrrrrrrrrrrrrrrrr"/>
		<phase duration="100" state="rrrrrrrrrrrrrrrGGGGG"/>
		<phase duration="100" state="rrrrrrrrrrrrrrryyyyy"/>
		<phase duration="100" state="rrrrrrrrrrrrrrrrrrrr"/>
	</tlLogic>
	<tlLogic id="TL3" type="static" programID="0" offset="0">
		<phase duration="100" state="GGGGrrrrrrGGGGrrrrrr"/>
		<phase duration="100" state="yyyyrrrrrryyyyrrrrrr"/>
		<phase duration="100" state="rrrrrrrrrrrrrrrrrrrr"/>
		<phase duration="100" state="rrrrGrrrrrrrrrGrrrrr"/>
		<phase duration="100" state="rrrryrrrrrrrrryrrrrr"/>
		<phase duration="100" state="rrrrrrrrrrrrrrrrrrrr"/>
		<phase duration="100" state="rrrrrGGGGrrrrrrGGGGr"/>
		<phase duration="100" state="rrrrryyyyrrrrrryyyyr"/>
		<phase duration="100" state="rrrrrrrrrrrrrrrrrrrr"/>
		<phase duration="100" state="rrrrrrrrrGrrrrrrrrrG"/>
		<phase duration="100" state="rrrrrrrrryrrrrrrrrry"/>
		<phase duration="100" state="rrrrrrrrrrrrrrrrrrrr"/>
		<phase duration="100" state="GGGGGrrrrrrrrrrrrrrr"/>
		<phase duration="100" state="yyyyyrrrrrrrrrrrrrrr"/>
		<phase duration="100" state="rrrrrrrrrrrrrrrrrrrr"/>
		<phase duration="100" state="rrrrrGGGGGrrrrrrrrrr"/>
		<phase duration="100" state="rrrrryyyyyrrrrrrrrrr"/>
		<phase duration="100" state="rrrrrrrrrrrrrrrrrrrr"/>
		<phase duration="100" state="rrrrrrrrrrGGGGGrrrrr"/>
		<phase duration="100" state="rrrrrrrrrryyyyyrrrrr"/>
		<phase duration="100" state="rrrrrrrrrrrrrrrrrrrr"/>
		<phase duration="100" state="rrrrrrrrrrrrrrrGGGGG"/>
		<phase duration="100" state="rrrrrrrrrrrrrrryyyyy"/>
		<phase duration="100" state="rrrrrrrrrrrrrrrrrrrr"/>
	</tlLogic>
	<tlLogic id="TL4" type="static" programID="0" offset="0">
		<phase duration="100" state="GGGGrrrrrrGGGGrrrrrr"/>
		<phase duration="100" state="yyyyrrrrrryyyyrrrrrr"/>
		<phase duration="100" state="rrrrrrrrrrrrrrrrrrrr"/>
		<phase duration="100" state="rrrrGrrrrrrrrrGrrrrr"/>
		<phase duration="100" state="rrrryrrrrrrrrryrrrrr"/>
		<phase duration="100" state="rrrrrrrrrrrrrrrrrrrr"/>
		<phase duration="100" state="rrrrrGGGGrrrrrrGGGGr"/>
		<phase duration="100" state="rrrrryyyyrrrrrryyyyr"/>
		<phase duration="100" state="rrrrrrrrrrrrrrrrrrrr"/>
		<phase duration="100" state="rrrrrrrrrGrrrrrrrrrG"/>
		<phase duration="100" state="rrrrrrrrryrrrrrrrrry"/>
		<phase duration="100" state="rrrrrrrrrrrrrrrrrrrr"/>
		<phase duration="100" state="GGGGGrrrrrrrrrrrrrrr"/>
		<phase duration="100" state="yyyyyrrrrrrrrrrrrrrr"/>
		<phase duration="100" state="rrrrrrrrrrrrrrrrrrrr"/>
		<phase duration="100" state="rrrrrGGGGGrrrrrrrrrr"/>
		<phase duration="100" state="rrrrryyyyyrrrrrrrrrr"/>
		<phase duration="100" state="rrrrrrrrrrrrrrrrrrrr"/>
		<phase duration="100" state="rrrrrrrrrrGGGGGrrrrr"/>
		<phase duration="100" state="rrrrrrrrrryyyyyrrrrr"/>
		<phase duration="100" state="rrrrrrrrrrrrrrrrrrrr"/>
		<phase duration="100" state="rrrrrrrrrrrrrrrGGGGG"/>
		<phase duration="100" state="rrrrrrrrrrrrrrryyyyy"/>
		<phase duration="100" state="rrrrrrrrrrrrrrrrrrrr"/>
	</tlLogic>
</tlLogics>
