<routes>
             <vType accel="1.0" decel="4.5" id="standard_car" length="5.0" minGap="2.5" maxSpeed="25" sigma="0.5" />
                    
    <trip id="0" depart="1.0" from="ce26" to="ce24" type="standard_car" departLane="random" departSpeed="10" />
    <trip id="1" depart="41.0" from="ce23" to="ce25" type="standard_car" departLane="random" departSpeed="10" />
    <trip id="2" depart="53.0" from="ce13" to="ce18" type="standard_car" departLane="random" departSpeed="10" />
    <trip id="3" depart="69.0" from="ce28" to="ce25" type="standard_car" departLane="random" departSpeed="10" />
    <trip id="4" depart="75.0" from="ce22" to="ce16" type="standard_car" departLane="random" departSpeed="10" />
    <trip id="5" depart="89.0" from="ce30" to="ce21" type="standard_car" departLane="random" departSpeed="10" />
    <trip id="6" depart="91.0" from="ce28" to="ce16" type="standard_car" departLane="random" departSpeed="10" />
    <trip id="7" depart="100.0" from="ce28" to="ce14" type="standard_car" departLane="random" departSpeed="10" />
    <trip id="8" depart="122.0" from="ce11" to="ce27" type="standard_car" departLane="random" departSpeed="10" />
    <trip id="9" depart="140.0" from="ce20" to="ce14" type="standard_car" departLane="random" departSpeed="10" />
    <trip id="10" depart="151.0" from="ce30" to="ce19" type="standard_car" departLane="random" departSpeed="10" />
    <trip id="11" depart="154.0" from="ce20" to="ce21" type="standard_car" departLane="random" departSpeed="10" />
    <trip id="12" depart="157.0" from="ce20" to="ce19" type="standard_car" departLane="random" departSpeed="10" />
    <trip id="13" depart="168.0" from="ce28" to="ce29" type="standard_car" departLane="random" departSpeed="10" />
    <trip id="14" depart="169.0" from="ce13" to="ce24" type="standard_car" departLane="random" departSpeed="10" />
    <trip id="15" depart="178.0" from="ce22" to="ce24" type="standard_car" departLane="random" departSpeed="10" />
    <trip id="16" depart="183.0" from="ce22" to="ce14" type="standard_car" departLane="random" departSpeed="10" />
    <trip id="17" depart="190.0" from="ce22" to="ce24" type="standard_car" departLane="random" departSpeed="10" />
    <trip id="18" depart="192.0" from="ce20" to="ce16" type="standard_car" departLane="random" departSpeed="10" />
    <trip id="19" depart="195.0" from="ce30" to="ce24" type="standard_car" departLane="random" departSpeed="10" />
    <trip id="20" depart="204.0" from="ce17" to="ce29" type="standard_car" departLane="random" departSpeed="10" />
    <trip id="21" depart="214.0" from="ce13" to="ce29" type="standard_car" departLane="random" departSpeed="10" />
    <trip id="22" depart="221.0" from="ce22" to="ce18" type="standard_car" departLane="random" departSpeed="10" />
    <trip id="23" depart="224.0" from="ce28" to="ce24" type="standard_car" departLane="random" departSpeed="10" />
    <trip id="24" depart="238.0" from="ce28" to="ce19" type="standard_car" departLane="random" departSpeed="10" />
    <trip id="25" depart="261.0" from="ce20" to="ce18" type="standard_car" departLane="random" departSpeed="10" />
    <trip id="26" depart="266.0" from="ce28" to="ce14" type="standard_car" departLane="random" departSpeed="10" />
    <trip id="27" depart="270.0" from="ce26" to="ce16" type="standard_car" departLane="random" departSpeed="10" />
    <trip id="28" depart="280.0" from="ce26" to="ce12" type="standard_car" departLane="random" departSpeed="10" />
    <trip id="29" depart="289.0" from="ce30" to="ce12" type="standard_car" departLane="random" departSpeed="10" />
    <trip id="30" depart="295.0" from="ce26" to="ce16" type="standard_car" departLane="random" departSpeed="10" />
    <trip id="31" depart="311.0" from="ce26" to="ce18" type="standard_car" departLane="random" departSpeed="10" />
    <trip id="32" depart="316.0" from="ce28" to="ce21" type="standard_car" departLane="random" departSpeed="10" />
    <trip id="33" depart="319.0" from="ce20" to="ce16" type="standard_car" departLane="random" departSpeed="10" />
    <trip id="34" depart="319.0" from="ce26" to="ce18" type="standard_car" departLane="random" departSpeed="10" />
    <trip id="35" depart="327.0" from="ce28" to="ce25" type="standard_car" departLane="random" departSpeed="10" />
    <trip id="36" depart="330.0" from="ce30" to="ce25" type="standard_car" departLane="random" departSpeed="10" />
    <trip id="37" depart="331.0" from="ce22" to="ce19" type="standard_car" departLane="random" departSpeed="10" />
    <trip id="38" depart="336.0" from="ce30" to="ce16" type="standard_car" departLane="random" departSpeed="10" />
    <trip id="39" depart="340.0" from="ce22" to="ce29" type="standard_car" departLane="random" departSpeed="10" />
    <trip id="40" depart="357.0" from="ce20" to="ce24" type="standard_car" departLane="random" departSpeed="10" />
    <trip id="41" depart="359.0" from="ce26" to="ce24" type="standard_car" departLane="random" departSpeed="10" />
    <trip id="42" depart="367.0" from="ce22" to="ce25" type="standard_car" departLane="random" departSpeed="10" />
    <trip id="43" depart="368.0" from="ce26" to="ce16" type="standard_car" departLane="random" departSpeed="10" />
    <trip id="44" depart="372.0" from="ce11" to="ce27" type="standard_car" departLane="random" departSpeed="10" />
    <trip id="45" depart="378.0" from="ce15" to="ce24" type="standard_car" departLane="random" departSpeed="10" />
    <trip id="46" depart="384.0" from="ce30" to="ce24" type="standard_car" departLane="random" departSpeed="10" />
    <trip id="47" depart="391.0" from="ce30" to="ce12" type="standard_car" departLane="random" departSpeed="10" />
    <trip id="48" depart="401.0" from="ce11" to="ce25" type="standard_car" departLane="random" departSpeed="10" />
    <trip id="49" depart="411.0" from="ce20" to="ce14" type="standard_car" departLane="random" departSpeed="10" />
    <trip id="50" depart="412.0" from="ce22" to="ce18" type="standard_car" departLane="random" departSpeed="10" />
    <trip id="51" depart="413.0" from="ce30" to="ce16" type="standard_car" departLane="random" departSpeed="10" />
    <trip id="52" depart="414.0" from="ce30" to="ce21" type="standard_car" departLane="random" departSpeed="10" />
    <trip id="53" depart="420.0" from="ce22" to="ce25" type="standard_car" departLane="random" departSpeed="10" />
    <trip id="54" depart="428.0" from="ce23" to="ce27" type="standard_car" departLane="random" departSpeed="10" />
    <trip id="55" depart="429.0" from="ce28" to="ce14" type="standard_car" departLane="random" departSpeed="10" />
    <trip id="56" depart="431.0" from="ce13" to="ce21" type="standard_car" departLane="random" departSpeed="10" />
    <trip id="57" depart="436.0" from="ce11" to="ce25" type="standard_car" departLane="random" departSpeed="10" />
    <trip id="58" depart="441.0" from="ce26" to="ce21" type="standard_car" departLane="random" departSpeed="10" />
    <trip id="59" depart="446.0" from="ce22" to="ce18" type="standard_car" departLane="random" departSpeed="10" />
    <trip id="60" depart="457.0" from="ce17" to="ce19" type="standard_car" departLane="random" departSpeed="10" />
    <trip id="61" depart="470.0" from="ce15" to="ce25" type="standard_car" departLane="random" departSpeed="10" />
    <trip id="62" depart="480.0" from="ce30" to="ce24" type="standard_car" departLane="random" departSpeed="10" />
    <trip id="63" depart="491.0" from="ce28" to="ce24" type="standard_car" departLane="random" departSpeed="10" />
    <trip id="64" depart="494.0" from="ce26" to="ce12" type="standard_car" departLane="random" departSpeed="10" />
    <trip id="65" depart="508.0" from="ce20" to="ce29" type="standard_car" departLane="random" departSpeed="10" />
    <trip id="66" depart="515.0" from="ce22" to="ce25" type="standard_car" departLane="random" departSpeed="10" />
    <trip id="67" depart="516.0" from="ce26" to="ce16" type="standard_car" departLane="random" departSpeed="10" />
    <trip id="68" depart="526.0" from="ce28" to="ce21" type="standard_car" departLane="random" departSpeed="10" />
    <trip id="69" depart="547.0" from="ce30" to="ce24" type="standard_car" departLane="random" departSpeed="10" />
    <trip id="70" depart="555.0" from="ce30" to="ce14" type="standard_car" departLane="random" departSpeed="10" />
    <trip id="71" depart="565.0" from="ce20" to="ce14" type="standard_car" departLane="random" departSpeed="10" />
    <trip id="72" depart="581.0" from="ce22" to="ce29" type="standard_car" departLane="random" departSpeed="10" />
    <trip id="73" depart="590.0" from="ce30" to="ce16" type="standard_car" departLane="random" departSpeed="10" />
    <trip id="74" depart="593.0" from="ce30" to="ce16" type="standard_car" departLane="random" departSpeed="10" />
    <trip id="75" depart="594.0" from="ce20" to="ce24" type="standard_car" departLane="random" departSpeed="10" />
    <trip id="76" depart="604.0" from="ce20" to="ce16" type="standard_car" departLane="random" departSpeed="10" />
    <trip id="77" depart="610.0" from="ce22" to="ce29" type="standard_car" departLane="random" departSpeed="10" />
    <trip id="78" depart="621.0" from="ce22" to="ce29" type="standard_car" departLane="random" departSpeed="10" />
    <trip id="79" depart="640.0" from="ce20" to="ce19" type="standard_car" departLane="random" departSpeed="10" />
    <trip id="80" depart="652.0" from="ce22" to="ce25" type="standard_car" departLane="random" departSpeed="10" />
    <trip id="81" depart="653.0" from="ce22" to="ce25" type="standard_car" departLane="random" departSpeed="10" />
    <trip id="82" depart="662.0" from="ce22" to="ce25" type="standard_car" departLane="random" departSpeed="10" />
    <trip id="83" depart="671.0" from="ce28" to="ce29" type="standard_car" departLane="random" departSpeed="10" />
    <trip id="84" depart="680.0" from="ce30" to="ce21" type="standard_car" departLane="random" departSpeed="10" />
    <trip id="85" depart="685.0" from="ce11" to="ce27" type="standard_car" departLane="random" departSpeed="10" />
    <trip id="86" depart="690.0" from="ce30" to="ce18" type="standard_car" departLane="random" departSpeed="10" />
    <trip id="87" depart="694.0" from="ce30" to="ce16" type="standard_car" departLane="random" departSpeed="10" />
    <trip id="88" depart="698.0" from="ce30" to="ce19" type="standard_car" departLane="random" departSpeed="10" />
    <trip id="89" depart="705.0" from="ce11" to="ce24" type="standard_car" departLane="random" departSpeed="10" />
    <trip id="90" depart="713.0" from="ce26" to="ce24" type="standard_car" departLane="random" departSpeed="10" />
    <trip id="91" depart="719.0" from="ce30" to="ce18" type="standard_car" departLane="random" departSpeed="10" />
    <trip id="92" depart="724.0" from="ce30" to="ce19" type="standard_car" departLane="random" departSpeed="10" />
    <trip id="93" depart="725.0" from="ce22" to="ce14" type="standard_car" departLane="random" departSpeed="10" />
    <trip id="94" depart="729.0" from="ce22" to="ce21" type="standard_car" departLane="random" departSpeed="10" />
    <trip id="95" depart="748.0" from="ce20" to="ce24" type="standard_car" departLane="random" departSpeed="10" />
    <trip id="96" depart="760.0" from="ce20" to="ce12" type="standard_car" departLane="random" departSpeed="10" />
    <trip id="97" depart="788.0" from="ce11" to="ce24" type="standard_car" departLane="random" departSpeed="10" />
    <trip id="98" depart="817.0" from="ce22" to="ce12" type="standard_car" departLane="random" departSpeed="10" />
    <trip id="99" depart="827.0" from="ce22" to="ce16" type="standard_car" departLane="random" departSpeed="10" />
    <trip id="100" depart="833.0" from="ce28" to="ce16" type="standard_car" departLane="random" departSpeed="10" />
    <trip id="101" depart="834.0" from="ce22" to="ce16" type="standard_car" departLane="random" departSpeed="10" />
    <trip id="102" depart="856.0" from="ce26" to="ce12" type="standard_car" departLane="random" departSpeed="10" />
    <trip id="103" depart="860.0" from="ce28" to="ce16" type="standard_car" departLane="random" departSpeed="10" />
    <trip id="104" depart="863.0" from="ce20" to="ce21" type="standard_car" departLane="random" departSpeed="10" />
    <trip id="105" depart="866.0" from="ce28" to="ce21" type="standard_car" departLane="random" departSpeed="10" />
    <trip id="106" depart="875.0" from="ce22" to="ce21" type="standard_car" departLane="random" departSpeed="10" />
    <trip id="107" depart="878.0" from="ce30" to="ce24" type="standard_car" departLane="random" departSpeed="10" />
    <trip id="108" depart="882.0" from="ce30" to="ce21" type="standard_car" departLane="random" departSpeed="10" />
    <trip id="109" depart="888.0" from="ce26" to="ce19" type="standard_car" departLane="random" departSpeed="10" />
    <trip id="110" depart="897.0" from="ce13" to="ce24" type="standard_car" departLane="random" departSpeed="10" />
    <trip id="111" depart="900.0" from="ce30" to="ce27" type="standard_car" departLane="random" departSpeed="10" />
    <trip id="112" depart="903.0" from="ce22" to="ce14" type="standard_car" departLane="random" departSpeed="10" />
    <trip id="113" depart="914.0" from="ce11" to="ce25" type="standard_car" departLane="random" departSpeed="10" />
    <trip id="114" depart="915.0" from="ce26" to="ce14" type="standard_car" departLane="random" departSpeed="10" />
    <trip id="115" depart="920.0" from="ce22" to="ce19" type="standard_car" departLane="random" departSpeed="10" />
    <trip id="116" depart="942.0" from="ce26" to="ce29" type="standard_car" departLane="random" departSpeed="10" />
    <trip id="117" depart="945.0" from="ce20" to="ce24" type="standard_car" departLane="random" departSpeed="10" />
    <trip id="118" depart="946.0" from="ce22" to="ce14" type="standard_car" departLane="random" departSpeed="10" />
    <trip id="119" depart="956.0" from="ce22" to="ce16" type="standard_car" departLane="random" departSpeed="10" />
    <trip id="120" depart="976.0" from="ce11" to="ce29" type="standard_car" departLane="random" departSpeed="10" />
    <trip id="121" depart="983.0" from="ce30" to="ce12" type="standard_car" departLane="random" departSpeed="10" />
    <trip id="122" depart="988.0" from="ce22" to="ce18" type="standard_car" departLane="random" departSpeed="10" />
    <trip id="123" depart="989.0" from="ce23" to="ce27" type="standard_car" departLane="random" departSpeed="10" />
    <trip id="124" depart="989.0" from="ce28" to="ce24" type="standard_car" departLane="random" departSpeed="10" />
    <trip id="125" depart="997.0" from="ce28" to="ce18" type="standard_car" departLane="random" departSpeed="10" />
    <trip id="126" depart="998.0" from="ce30" to="ce25" type="standard_car" departLane="random" departSpeed="10" />
    <trip id="127" depart="998.0" from="ce28" to="ce21" type="standard_car" departLane="random" departSpeed="10" />
    <trip id="128" depart="1001.0" from="ce28" to="ce18" type="standard_car" departLane="random" departSpeed="10" />
    <trip id="129" depart="1008.0" from="ce28" to="ce18" type="standard_car" departLane="random" departSpeed="10" />
    <trip id="130" depart="1012.0" from="ce26" to="ce21" type="standard_car" departLane="random" departSpeed="10" />
    <trip id="131" depart="1022.0" from="ce20" to="ce18" type="standard_car" departLane="random" departSpeed="10" />
    <trip id="132" depart="1022.0" from="ce22" to="ce27" type="standard_car" departLane="random" departSpeed="10" />
    <trip id="133" depart="1023.0" from="ce26" to="ce21" type="standard_car" departLane="random" departSpeed="10" />
    <trip id="134" depart="1031.0" from="ce22" to="ce12" type="standard_car" departLane="random" departSpeed="10" />
    <trip id="135" depart="1039.0" from="ce28" to="ce29" type="standard_car" departLane="random" departSpeed="10" />
    <trip id="136" depart="1049.0" from="ce22" to="ce25" type="standard_car" departLane="random" departSpeed="10" />
    <trip id="137" depart="1059.0" from="ce20" to="ce12" type="standard_car" departLane="random" departSpeed="10" />
    <trip id="138" depart="1069.0" from="ce28" to="ce18" type="standard_car" departLane="random" departSpeed="10" />
    <trip id="139" depart="1070.0" from="ce30" to="ce14" type="standard_car" departLane="random" departSpeed="10" />
    <trip id="140" depart="1070.0" from="ce15" to="ce29" type="standard_car" departLane="random" departSpeed="10" />
    <trip id="141" depart="1071.0" from="ce28" to="ce19" type="standard_car" departLane="random" departSpeed="10" />
    <trip id="142" depart="1071.0" from="ce30" to="ce21" type="standard_car" departLane="random" departSpeed="10" />
    <trip id="143" depart="1085.0" from="ce28" to="ce12" type="standard_car" departLane="random" departSpeed="10" />
    <trip id="144" depart="1097.0" from="ce23" to="ce18" type="standard_car" departLane="random" departSpeed="10" />
    <trip id="145" depart="1100.0" from="ce30" to="ce14" type="standard_car" departLane="random" departSpeed="10" />
    <trip id="146" depart="1115.0" from="ce22" to="ce27" type="standard_car" departLane="random" departSpeed="10" />
    <trip id="147" depart="1115.0" from="ce30" to="ce19" type="standard_car" departLane="random" departSpeed="10" />
    <trip id="148" depart="1118.0" from="ce28" to="ce18" type="standard_car" departLane="random" departSpeed="10" />
    <trip id="149" depart="1132.0" from="ce26" to="ce29" type="standard_car" departLane="random" departSpeed="10" />
    <trip id="150" depart="1151.0" from="ce28" to="ce14" type="standard_car" departLane="random" departSpeed="10" />
    <trip id="151" depart="1154.0" from="ce15" to="ce18" type="standard_car" departLane="random" departSpeed="10" />
    <trip id="152" depart="1162.0" from="ce20" to="ce16" type="standard_car" departLane="random" departSpeed="10" />
    <trip id="153" depart="1176.0" from="ce26" to="ce21" type="standard_car" departLane="random" departSpeed="10" />
    <trip id="154" depart="1194.0" from="ce22" to="ce16" type="standard_car" departLane="random" departSpeed="10" />
    <trip id="155" depart="1199.0" from="ce26" to="ce16" type="standard_car" departLane="random" departSpeed="10" />
    <trip id="156" depart="1209.0" from="ce22" to="ce14" type="standard_car" departLane="random" departSpeed="10" />
    <trip id="157" depart="1219.0" from="ce30" to="ce25" type="standard_car" departLane="random" departSpeed="10" />
    <trip id="158" depart="1226.0" from="ce26" to="ce18" type="standard_car" departLane="random" departSpeed="10" />
    <trip id="159" depart="1235.0" from="ce22" to="ce18" type="standard_car" departLane="random" departSpeed="10" />
    <trip id="160" depart="1240.0" from="ce23" to="ce12" type="standard_car" departLane="random" departSpeed="10" />
    <trip id="161" depart="1248.0" from="ce26" to="ce18" type="standard_car" departLane="random" departSpeed="10" />
    <trip id="162" depart="1252.0" from="ce23" to="ce21" type="standard_car" departLane="random" departSpeed="10" />
    <trip id="163" depart="1257.0" from="ce23" to="ce27" type="standard_car" departLane="random" departSpeed="10" />
    <trip id="164" depart="1279.0" from="ce28" to="ce24" type="standard_car" departLane="random" departSpeed="10" />
    <trip id="165" depart="1281.0" from="ce26" to="ce24" type="standard_car" departLane="random" departSpeed="10" />
    <trip id="166" depart="1285.0" from="ce20" to="ce14" type="standard_car" departLane="random" departSpeed="10" />
    <trip id="167" depart="1291.0" from="ce22" to="ce25" type="standard_car" departLane="random" departSpeed="10" />
    <trip id="168" depart="1292.0" from="ce15" to="ce29" type="standard_car" departLane="random" departSpeed="10" />
    <trip id="169" depart="1296.0" from="ce20" to="ce14" type="standard_car" departLane="random" departSpeed="10" />
    <trip id="170" depart="1300.0" from="ce22" to="ce29" type="standard_car" departLane="random" departSpeed="10" />
    <trip id="171" depart="1312.0" from="ce28" to="ce24" type="standard_car" departLane="random" departSpeed="10" />
    <trip id="172" depart="1318.0" from="ce22" to="ce16" type="standard_car" departLane="random" departSpeed="10" />
    <trip id="173" depart="1323.0" from="ce13" to="ce18" type="standard_car" departLane="random" departSpeed="10" />
    <trip id="174" depart="1332.0" from="ce26" to="ce18" type="standard_car" departLane="random" departSpeed="10" />
    <trip id="175" depart="1336.0" from="ce11" to="ce29" type="standard_car" departLane="random" departSpeed="10" />
    <trip id="176" depart="1338.0" from="ce28" to="ce27" type="standard_car" departLane="random" departSpeed="10" />
    <trip id="177" depart="1339.0" from="ce26" to="ce12" type="standard_car" departLane="random" departSpeed="10" />
    <trip id="178" depart="1354.0" from="ce26" to="ce29" type="standard_car" departLane="random" departSpeed="10" />
    <trip id="179" depart="1363.0" from="ce15" to="ce24" type="standard_car" departLane="random" departSpeed="10" />
    <trip id="180" depart="1372.0" from="ce28" to="ce16" type="standard_car" departLane="random" departSpeed="10" />
    <trip id="181" depart="1374.0" from="ce15" to="ce25" type="standard_car" departLane="random" departSpeed="10" />
    <trip id="182" depart="1390.0" from="ce11" to="ce29" type="standard_car" departLane="random" departSpeed="10" />
    <trip id="183" depart="1392.0" from="ce15" to="ce18" type="standard_car" departLane="random" departSpeed="10" />
    <trip id="184" depart="1400.0" from="ce23" to="ce29" type="standard_car" departLane="random" departSpeed="10" />
    <trip id="185" depart="1411.0" from="ce11" to="ce27" type="standard_car" departLane="random" departSpeed="10" />
    <trip id="186" depart="1415.0" from="ce20" to="ce16" type="standard_car" departLane="random" departSpeed="10" />
    <trip id="187" depart="1418.0" from="ce20" to="ce29" type="standard_car" departLane="random" departSpeed="10" />
    <trip id="188" depart="1422.0" from="ce13" to="ce19" type="standard_car" departLane="random" departSpeed="10" />
    <trip id="189" depart="1443.0" from="ce20" to="ce14" type="standard_car" departLane="random" departSpeed="10" />
    <trip id="190" depart="1444.0" from="ce20" to="ce16" type="standard_car" departLane="random" departSpeed="10" />
    <trip id="191" depart="1471.0" from="ce30" to="ce24" type="standard_car" departLane="random" departSpeed="10" />
    <trip id="192" depart="1477.0" from="ce17" to="ce25" type="standard_car" departLane="random" departSpeed="10" />
    <trip id="193" depart="1479.0" from="ce23" to="ce29" type="standard_car" departLane="random" departSpeed="10" />
    <trip id="194" depart="1480.0" from="ce22" to="ce18" type="standard_car" departLane="random" departSpeed="10" />
    <trip id="195" depart="1485.0" from="ce22" to="ce14" type="standard_car" departLane="random" departSpeed="10" />
    <trip id="196" depart="1495.0" from="ce28" to="ce24" type="standard_car" departLane="random" departSpeed="10" />
    <trip id="197" depart="1496.0" from="ce26" to="ce29" type="standard_car" departLane="random" departSpeed="10" />
    <trip id="198" depart="1499.0" from="ce30" to="ce29" type="standard_car" departLane="random" departSpeed="10" />
    <trip id="199" depart="1518.0" from="ce22" to="ce18" type="standard_car" departLane="random" departSpeed="10" />
    <trip id="200" depart="1526.0" from="ce28" to="ce24" type="standard_car" departLane="random" departSpeed="10" />
    <trip id="201" depart="1526.0" from="ce20" to="ce14" type="standard_car" departLane="random" departSpeed="10" />
    <trip id="202" depart="1528.0" from="ce22" to="ce27" type="standard_car" departLane="random" departSpeed="10" />
    <trip id="203" depart="1542.0" from="ce28" to="ce24" type="standard_car" departLane="random" departSpeed="10" />
    <trip id="204" depart="1546.0" from="ce20" to="ce29" type="standard_car" departLane="random" departSpeed="10" />
    <trip id="205" depart="1550.0" from="ce30" to="ce27" type="standard_car" departLane="random" departSpeed="10" />
    <trip id="206" depart="1554.0" from="ce28" to="ce24" type="standard_car" departLane="random" departSpeed="10" />
    <trip id="207" depart="1578.0" from="ce22" to="ce16" type="standard_car" departLane="random" departSpeed="10" />
    <trip id="208" depart="1579.0" from="ce22" to="ce25" type="standard_car" departLane="random" departSpeed="10" />
    <trip id="209" depart="1584.0" from="ce28" to="ce18" type="standard_car" departLane="random" departSpeed="10" />
    <trip id="210" depart="1586.0" from="ce30" to="ce25" type="standard_car" departLane="random" departSpeed="10" />
    <trip id="211" depart="1588.0" from="ce22" to="ce18" type="standard_car" departLane="random" departSpeed="10" />
    <trip id="212" depart="1595.0" from="ce30" to="ce12" type="standard_car" departLane="random" departSpeed="10" />
    <trip id="213" depart="1624.0" from="ce22" to="ce18" type="standard_car" departLane="random" departSpeed="10" />
    <trip id="214" depart="1635.0" from="ce22" to="ce14" type="standard_car" departLane="random" departSpeed="10" />
    <trip id="215" depart="1652.0" from="ce30" to="ce24" type="standard_car" departLane="random" departSpeed="10" />
    <trip id="216" depart="1656.0" from="ce23" to="ce14" type="standard_car" departLane="random" departSpeed="10" />
    <trip id="217" depart="1663.0" from="ce17" to="ce19" type="standard_car" departLane="random" departSpeed="10" />
    <trip id="218" depart="1678.0" from="ce22" to="ce18" type="standard_car" departLane="random" departSpeed="10" />
    <trip id="219" depart="1695.0" from="ce20" to="ce24" type="standard_car" departLane="random" departSpeed="10" />
    <trip id="220" depart="1700.0" from="ce23" to="ce12" type="standard_car" departLane="random" departSpeed="10" />
    <trip id="221" depart="1701.0" from="ce30" to="ce16" type="standard_car" departLane="random" departSpeed="10" />
    <trip id="222" depart="1717.0" from="ce22" to="ce27" type="standard_car" departLane="random" departSpeed="10" />
    <trip id="223" depart="1723.0" from="ce22" to="ce14" type="standard_car" departLane="random" departSpeed="10" />
    <trip id="224" depart="1732.0" from="ce11" to="ce18" type="standard_car" departLane="random" departSpeed="10" />
    <trip id="225" depart="1734.0" from="ce11" to="ce29" type="standard_car" departLane="random" departSpeed="10" />
    <trip id="226" depart="1739.0" from="ce22" to="ce12" type="standard_car" departLane="random" departSpeed="10" />
    <trip id="227" depart="1741.0" from="ce11" to="ce18" type="standard_car" departLane="random" departSpeed="10" />
    <trip id="228" depart="1749.0" from="ce15" to="ce21" type="standard_car" departLane="random" departSpeed="10" />
    <trip id="229" depart="1762.0" from="ce22" to="ce14" type="standard_car" departLane="random" departSpeed="10" />
    <trip id="230" depart="1764.0" from="ce26" to="ce14" type="standard_car" departLane="random" departSpeed="10" />
    <trip id="231" depart="1768.0" from="ce30" to="ce16" type="standard_car" departLane="random" departSpeed="10" />
    <trip id="232" depart="1789.0" from="ce30" to="ce25" type="standard_car" departLane="random" departSpeed="10" />
    <trip id="233" depart="1790.0" from="ce11" to="ce18" type="standard_car" departLane="random" departSpeed="10" />
    <trip id="234" depart="1794.0" from="ce30" to="ce21" type="standard_car" departLane="random" departSpeed="10" />
    <trip id="235" depart="1810.0" from="ce30" to="ce16" type="standard_car" departLane="random" departSpeed="10" />
    <trip id="236" depart="1814.0" from="ce20" to="ce21" type="standard_car" departLane="random" departSpeed="10" />
    <trip id="237" depart="1820.0" from="ce28" to="ce18" type="standard_car" departLane="random" departSpeed="10" />
    <trip id="238" depart="1833.0" from="ce15" to="ce29" type="standard_car" departLane="random" departSpeed="10" />
    <trip id="239" depart="1843.0" from="ce20" to="ce25" type="standard_car" departLane="random" departSpeed="10" />
    <trip id="240" depart="1870.0" from="ce22" to="ce14" type="standard_car" departLane="random" departSpeed="10" />
    <trip id="241" depart="1873.0" from="ce13" to="ce12" type="standard_car" departLane="random" departSpeed="10" />
    <trip id="242" depart="1889.0" from="ce15" to="ce21" type="standard_car" departLane="random" departSpeed="10" />
    <trip id="243" depart="1890.0" from="ce26" to="ce21" type="standard_car" departLane="random" departSpeed="10" />
    <trip id="244" depart="1891.0" from="ce28" to="ce18" type="standard_car" departLane="random" departSpeed="10" />
    <trip id="245" depart="1891.0" from="ce30" to="ce14" type="standard_car" departLane="random" departSpeed="10" />
    <trip id="246" depart="1905.0" from="ce30" to="ce24" type="standard_car" departLane="random" departSpeed="10" />
    <trip id="247" depart="1912.0" from="ce26" to="ce19" type="standard_car" departLane="random" departSpeed="10" />
    <trip id="248" depart="1927.0" from="ce22" to="ce29" type="standard_car" departLane="random" departSpeed="10" />
    <trip id="249" depart="1932.0" from="ce26" to="ce18" type="standard_car" departLane="random" departSpeed="10" />
    <trip id="250" depart="1936.0" from="ce28" to="ce14" type="standard_car" departLane="random" departSpeed="10" />
    <trip id="251" depart="1965.0" from="ce30" to="ce14" type="standard_car" departLane="random" departSpeed="10" />
    <trip id="252" depart="1978.0" from="ce30" to="ce12" type="standard_car" departLane="random" departSpeed="10" />
    <trip id="253" depart="1980.0" from="ce30" to="ce24" type="standard_car" departLane="random" departSpeed="10" />
    <trip id="254" depart="1998.0" from="ce30" to="ce21" type="standard_car" departLane="random" departSpeed="10" />
    <trip id="255" depart="2001.0" from="ce22" to="ce12" type="standard_car" departLane="random" departSpeed="10" />
    <trip id="256" depart="2013.0" from="ce22" to="ce18" type="standard_car" departLane="random" departSpeed="10" />