<?xml version="1.0" ?>
<tlLogics>
	<tlLogic id="TL1" type="static" programID="0" offset="0">
		<phase duration="100" state="GGGGrrrrrrGGGGrrrrrr"/>
		<phase duration="100" state="yyyyrrrrrryyyyrrrrrr"/>
		<phase duration="100" state="rrrrrrrrrrrrrrrrrrrr"/>
		<phase duration="100" state="rrrrGrrrrrrrrrGrrrrr"/>
		<phase duration="100" state="rrrryrrrrrrrrryrrrrr"/>
		<phase duration="100" state="rrrrrrrrrrrrrrrrrrrr"/>
		<phase duration="100" state="rrrrrGGGGrrrrrrGGGGr"/>
		<phase duration="100" state="rrrrryyyyrrrrrryyyyr"/>
		<phase duration="100" state="rrrrrrrrrrrrrrrrrrrr"/>
		<phase duration="100" state="rrrrrrrrrGrrrrrrrrrG"/>
		<phase duration="100" state="rrrrrrrrryrrrrrrrrry"/>
		<phase duration="100" state="rrrrrrrrrrrrrrrrrrrr"/>
		<phase duration="100" state="GGGGGrrrrrrrrrrrrrrr"/>
		<phase duration="100" state="yyyyyrrrrrrrrrrrrrrr"/>
		<phase duration="100" state="rrrrrrrrrrrrrrrrrrrr"/>
		<phase duration="100" state="rrrrrGGGGGrrrrrrrrrr"/>
		<phase duration="100" state="rrrrryyyyyrrrrrrrrrr"/>
		<phase duration="100" state="rrrrrrrrrrrrrrrrrrrr"/>
		<phase duration="100" state="rrrrrrrrrrGGGGGrrrrr"/>
		<phase duration="100" state="rrrrrrrrrryyyyyrrrrr"/>
		<phase duration="100" state="rrrrrrrrrrrrrrrrrrrr"/>
		<phase duration="100" state="rrrrrrrrrrrrrrrGGGGG"/>
		<phase duration="100" state="rrrrrrrrrrrrrrryyyyy"/>
		<phase duration="100" state="rrrrrrrrrrrrrrrrrrrr"/>
	</tlLogic>
	<tlLogic id="TL2" type="static" programID="0" offset="0">
		<phase duration="100" state="GGGGrrrrrrGGGGrrrrrr"/>
		<phase duration="100" state="yyyyrrrrrryyyyrrrrrr"/>
		<phase duration="100" state="rrrrrrrrrrrrrrrrrrrr"/>
		<phase duration="100" state="rrrrGrrrrrrrrrGrrrrr"/>
		<phase duration="100" state="rrrryrrrrrrrrryrrrrr"/>
		<phase duration="100" state="rrrrrrrrrrrrrrrrrrrr"/>
		<phase duration="100" state="rrrrrGGGGrrrrrrGGGGr"/>
		<phase duration="100" state="rrrrryyyyrrrrrryyyyr"/>
		<phase duration="100" state="rrrrrrrrrrrrrrrrrrrr"/>
		<phase duration="100" state="rrrrrrrrrGrrrrrrrrrG"/>
		<phase duration="100" state="rrrrrrrrryrrrrrrrrry"/>
		<phase duration="100" state="rrrrrrrrrrrrrrrrrrrr"/>
		<phase duration="100" state="GGGGGrrrrrrrrrrrrrrr"/>
		<phase duration="100" state="yyyyyrrrrrrrrrrrrrrr"/>
		<phase duration="100" state="rrrrrrrrrrrrrrrrrrrr"/>
		<phase duration="100" state="rrrrrGGGGGrrrrrrrrrr"/>
		<phase duration="100" state="rrrrryyyyyrrrrrrrrrr"/>
		<phase duration="100" state="rrrrrrrrrrrrrrrrrrrr"/>
		<phase duration="100" state="rrrrrrrrrrGGGGGrrrrr"/>
		<phase duration="100" state="rrrrrrrrrryyyyyrrrrr"/>
		<phase duration="100" state="rrrrrrrrrrrrrrrrrrrr"/>
		<phase duration="100" state="rrrrrrrrrrrrrrrGGGGG"/>
		<phase duration="100" state="rrrrrrrrrrrrrrryyyyy"/>
		<phase duration="100" state="rrrrrrrrrrrrrrrrrrrr"/>
	</tlLogic>
	<tlLogic id="TL3" type="static" programID="0" offset="0">
		<phase duration="100" state="GGGGrrrrrrGGGGrrrrrr"/>
		<phase duration="100" state="yyyyrrrrrryyyyrrrrrr"/>
		<phase duration="100" state="rrrrrrrrrrrrrrrrrrrr"/>
		<phase duration="100" state="rrrrGrrrrrrrrrGrrrrr"/>
		<phase duration="100" state="rrrryrrrrrrrrryrrrrr"/>
		<phase duration="100" state="rrrrrrrrrrrrrrrrrrrr"/>
		<phase duration="100" state="rrrrrGGGGrrrrrrGGGGr"/>
		<phase duration="100" state="rrrrryyyyrrrrrryyyyr"/>
		<phase duration="100" state="rrrrrrrrrrrrrrrrrrrr"/>
		<phase duration="100" state="rrrrrrrrrGrrrrrrrrrG"/>
		<phase duration="100" state="rrrrrrrrryrrrrrrrrry"/>
		<phase duration="100" state="rrrrrrrrrrrrrrrrrrrr"/>
		<phase duration="100" state="GGGGGrrrrrrrrrrrrrrr"/>
		<phase duration="100" state="yyyyyrrrrrrrrrrrrrrr"/>
		<phase duration="100" state="rrrrrrrrrrrrrrrrrrrr"/>
		<phase duration="100" state="rrrrrGGGGGrrrrrrrrrr"/>
		<phase duration="100" state="rrrrryyyyyrrrrrrrrrr"/>
		<phase duration="100" state="rrrrrrrrrrrrrrrrrrrr"/>
		<phase duration="100" state="rrrrrrrrrrGGGGGrrrrr"/>
		<phase duration="100" state="rrrrrrrrrryyyyyrrrrr"/>
		<phase duration="100" state="rrrrrrrrrrrrrrrrrrrr"/>
		<phase duration="100" state="rrrrrrrrrrrrrrrGGGGG"/>
		<phase duration="100" state="rrrrrrrrrrrrrrryyyyy"/>
		<phase duration="100" state="rrrrrrrrrrrrrrrrrrrr"/>
	</tlLogic>
	<tlLogic id="TL4" type="static" programID="0" offset="0">
		<phase duration="100" state="GGGGrrrrrrGGGGrrrrrr"/>
		<phase duration="100" state="yyyyrrrrrryyyyrrrrrr"/>
		<phase duration="100" state="rrrrrrrrrrrrrrrrrrrr"/>
		<phase duration="100" state="rrrrGrrrrrrrrrGrrrrr"/>
		<phase duration="100" state="rrrryrrrrrrrrryrrrrr"/>
		<phase duration="100" state="rrrrrrrrrrrrrrrrrrrr"/>
		<phase duration="100" state="rrrrrGGGGrrrrrrGGGGr"/>
		<phase duration="100" state="rrrrryyyyrrrrrryyyyr"/>
		<phase duration="100" state="rrrrrrrrrrrrrrrrrrrr"/>
		<phase duration="100" state="rrrrrrrrrGrrrrrrrrrG"/>
		<phase duration="100" state="rrrrrrrrryrrrrrrrrry"/>
		<phase duration="100" state="rrrrrrrrrrrrrrrrrrrr"/>
		<phase duration="100" state="GGGGGrrrrrrrrrrrrrrr"/>
		<phase duration="100" state="yyyyyrrrrrrrrrrrrrrr"/>
		<phase duration="100" state="rrrrrrrrrrrrrrrrrrrr"/>
		<phase duration="100" state="rrrrrGGGGGrrrrrrrrrr"/>
		<phase duration="100" state="rrrrryyyyyrrrrrrrrrr"/>
		<phase duration="100" state="rrrrrrrrrrrrrrrrrrrr"/>
		<phase duration="100" state="rrrrrrrrrrGGGGGrrrrr"/>
		<phase duration="100" state="rrrrrrrrrryyyyyrrrrr"/>
		<phase duration="100" state="rrrrrrrrrrrrrrrrrrrr"/>
		<phase duration="100" state="rrrrrrrrrrrrrrrGGGGG"/>
		<phase duration="100" state="rrrrrrrrrrrrrrryyyyy"/>
		<phase duration="100" state="rrrrrrrrrrrrrrrrrrrr"/>
	</tlLogic>
	<tlLogic id="TL5" type="static" programID="0" offset="0">
		<phase duration="100" state="GGGGrrrrrrGGGGrrrrrr"/>
		<phase duration="100" state="yyyyrrrrrryyyyrrrrrr"/>
		<phase duration="100" state="rrrrrrrrrrrrrrrrrrrr"/>
		<phase duration="100" state="rrrrGrrrrrrrrrGrrrrr"/>
		<phase duration="100" state="rrrryrrrrrrrrryrrrrr"/>
		<phase duration="100" state="rrrrrrrrrrrrrrrrrrrr"/>
		<phase duration="100" state="rrrrrGGGGrrrrrrGGGGr"/>
		<phase duration="100" state="rrrrryyyyrrrrrryyyyr"/>
		<phase duration="100" state="rrrrrrrrrrrrrrrrrrrr"/>
		<phase duration="100" state="rrrrrrrrrGrrrrrrrrrG"/>
		<phase duration="100" state="rrrrrrrrryrrrrrrrrry"/>
		<phase duration="100" state="rrrrrrrrrrrrrrrrrrrr"/>
		<phase duration="100" state="GGGGGrrrrrrrrrrrrrrr"/>
		<phase duration="100" state="yyyyyrrrrrrrrrrrrrrr"/>
		<phase duration="100" state="rrrrrrrrrrrrrrrrrrrr"/>
		<phase duration="100" state="rrrrrGGGGGrrrrrrrrrr"/>
		<phase duration="100" state="rrrrryyyyyrrrrrrrrrr"/>
		<phase duration="100" state="rrrrrrrrrrrrrrrrrrrr"/>
		<phase duration="100" state="rrrrrrrrrrGGGGGrrrrr"/>
		<phase duration="100" state="rrrrrrrrrryyyyyrrrrr"/>
		<phase duration="100" state="rrrrrrrrrrrrrrrrrrrr"/>
		<phase duration="100" state="rrrrrrrrrrrrrrrGGGGG"/>
		<phase duration="100" state="rrrrrrrrrrrrrrryyyyy"/>
		<phase duration="100" state="rrrrrrrrrrrrrrrrrrrr"/>
	</tlLogic>
	<tlLogic id="TL6" type="static" programID="0" offset="0">
		<phase duration="100" state="GGGGrrrrrrGGGGrrrrrr"/>
		<phase duration="100" state="yyyyrrrrrryyyyrrrrrr"/>
		<phase duration="100" state="rrrrrrrrrrrrrrrrrrrr"/>
		<phase duration="100" state="rrrrGrrrrrrrrrGrrrrr"/>
		<phase duration="100" state="rrrryrrrrrrrrryrrrrr"/>
		<phase duration="100" state="rrrrrrrrrrrrrrrrrrrr"/>
		<phase duration="100" state="rrrrrGGGGrrrrrrGGGGr"/>
		<phase duration="100" state="rrrrryyyyrrrrrryyyyr"/>
		<phase duration="100" state="rrrrrrrrrrrrrrrrrrrr"/>
		<phase duration="100" state="rrrrrrrrrGrrrrrrrrrG"/>
		<phase duration="100" state="rrrrrrrrryrrrrrrrrry"/>
		<phase duration="100" state="rrrrrrrrrrrrrrrrrrrr"/>
		<phase duration="100" state="GGGGGrrrrrrrrrrrrrrr"/>
		<phase duration="100" state="yyyyyrrrrrrrrrrrrrrr"/>
		<phase duration="100" state="rrrrrrrrrrrrrrrrrrrr"/>
		<phase duration="100" state="rrrrrGGGGGrrrrrrrrrr"/>
		<phase duration="100" state="rrrrryyyyyrrrrrrrrrr"/>
		<phase duration="100" state="rrrrrrrrrrrrrrrrrrrr"/>
		<phase duration="100" state="rrrrrrrrrrGGGGGrrrrr"/>
		<phase duration="100" state="rrrrrrrrrryyyyyrrrrr"/>
		<phase duration="100" state="rrrrrrrrrrrrrrrrrrrr"/>
		<phase duration="100" state="rrrrrrrrrrrrrrrGGGGG"/>
		<phase duration="100" state="rrrrrrrrrrrrrrryyyyy"/>
		<phase duration="100" state="rrrrrrrrrrrrrrrrrrrr"/>
	</tlLogic>
	<tlLogic id="TL7" type="static" programID="0" offset="0">
		<phase duration="100" state="GGGGrrrrrrGGGGrrrrrr"/>
		<phase duration="100" state="yyyyrrrrrryyyyrrrrrr"/>
		<phase duration="100" state="rrrrrrrrrrrrrrrrrrrr"/>
		<phase duration="100" state="rrrrGrrrrrrrrrGrrrrr"/>
		<phase duration="100" state="rrrryrrrrrrrrryrrrrr"/>
		<phase duration="100" state="rrrrrrrrrrrrrrrrrrrr"/>
		<phase duration="100" state="rrrrrGGGGrrrrrrGGGGr"/>
		<phase duration="100" state="rrrrryyyyrrrrrryyyyr"/>
		<phase duration="100" state="rrrrrrrrrrrrrrrrrrrr"/>
		<phase duration="100" state="rrrrrrrrrGrrrrrrrrrG"/>
		<phase duration="100" state="rrrrrrrrryrrrrrrrrry"/>
		<phase duration="100" state="rrrrrrrrrrrrrrrrrrrr"/>
		<phase duration="100" state="GGGGGrrrrrrrrrrrrrrr"/>
		<phase duration="100" state="yyyyyrrrrrrrrrrrrrrr"/>
		<phase duration="100" state="rrrrrrrrrrrrrrrrrrrr"/>
		<phase duration="100" state="rrrrrGGGGGrrrrrrrrrr"/>
		<phase duration="100" state="rrrrryyyyyrrrrrrrrrr"/>
		<phase duration="100" state="rrrrrrrrrrrrrrrrrrrr"/>
		<phase duration="100" state="rrrrrrrrrrGGGGGrrrrr"/>
		<phase duration="100" state="rrrrrrrrrryyyyyrrrrr"/>
		<phase duration="100" state="rrrrrrrrrrrrrrrrrrrr"/>
		<phase duration="100" state="rrrrrrrrrrrrrrrGGGGG"/>
		<phase duration="100" state="rrrrrrrrrrrrrrryyyyy"/>
		<phase duration="100" state="rrrrrrrrrrrrrrrrrrrr"/>
	</tlLogic>
	<tlLogic id="TL8" type="static" programID="0" offset="0">
		<phase duration="100" state="GGGGrrrrrrGGGGrrrrrr"/>
		<phase duration="100" state="yyyyrrrrrryyyyrrrrrr"/>
		<phase duration="100" state="rrrrrrrrrrrrrrrrrrrr"/>
		<phase duration="100" state="rrrrGrrrrrrrrrGrrrrr"/>
		<phase duration="100" state="rrrryrrrrrrrrryrrrrr"/>
		<phase duration="100" state="rrrrrrrrrrrrrrrrrrrr"/>
		<phase duration="100" state="rrrrrGGGGrrrrrrGGGGr"/>
		<phase duration="100" state="rrrrryyyyrrrrrryyyyr"/>
		<phase duration="100" state="rrrrrrrrrrrrrrrrrrrr"/>
		<phase duration="100" state="rrrrrrrrrGrrrrrrrrrG"/>
		<phase duration="100" state="rrrrrrrrryrrrrrrrrry"/>
		<phase duration="100" state="rrrrrrrrrrrrrrrrrrrr"/>
		<phase duration="100" state="GGGGGrrrrrrrrrrrrrrr"/>
		<phase duration="100" state="yyyyyrrrrrrrrrrrrrrr"/>
		<phase duration="100" state="rrrrrrrrrrrrrrrrrrrr"/>
		<phase duration="100" state="rrrrrGGGGGrrrrrrrrrr"/>
		<phase duration="100" state="rrrrryyyyyrrrrrrrrrr"/>
		<phase duration="100" state="rrrrrrrrrrrrrrrrrrrr"/>
		<phase duration="100" state="rrrrrrrrrrGGGGGrrrrr"/>
		<phase duration="100" state="rrrrrrrrrryyyyyrrrrr"/>
		<phase duration="100" state="rrrrrrrrrrrrrrrrrrrr"/>
		<phase duration="100" state="rrrrrrrrrrrrrrrGGGGG"/>
		<phase duration="100" state="rrrrrrrrrrrrrrryyyyy"/>
		<phase duration="100" state="rrrrrrrrrrrrrrrrrrrr"/>
	</tlLogic>
	<tlLogic id="TL9" type="static" programID="0" offset="0">
		<phase duration="100" state="GGGGrrrrrrGGGGrrrrrr"/>
		<phase duration="100" state="yyyyrrrrrryyyyrrrrrr"/>
		<phase duration="100" state="rrrrrrrrrrrrrrrrrrrr"/>
		<phase duration="100" state="rrrrGrrrrrrrrrGrrrrr"/>
		<phase duration="100" state="rrrryrrrrrrrrryrrrrr"/>
		<phase duration="100" state="rrrrrrrrrrrrrrrrrrrr"/>
		<phase duration="100" state="rrrrrGGGGrrrrrrGGGGr"/>
		<phase duration="100" state="rrrrryyyyrrrrrryyyyr"/>
		<phase duration="100" state="rrrrrrrrrrrrrrrrrrrr"/>
		<phase duration="100" state="rrrrrrrrrGrrrrrrrrrG"/>
		<phase duration="100" state="rrrrrrrrryrrrrrrrrry"/>
		<phase duration="100" state="rrrrrrrrrrrrrrrrrrrr"/>
		<phase duration="100" state="GGGGGrrrrrrrrrrrrrrr"/>
		<phase duration="100" state="yyyyyrrrrrrrrrrrrrrr"/>
		<phase duration="100" state="rrrrrrrrrrrrrrrrrrrr"/>
		<phase duration="100" state="rrrrrGGGGGrrrrrrrrrr"/>
		<phase duration="100" state="rrrrryyyyyrrrrrrrrrr"/>
		<phase duration="100" state="rrrrrrrrrrrrrrrrrrrr"/>
		<phase duration="100" state="rrrrrrrrrrGGGGGrrrrr"/>
		<phase duration="100" state="rrrrrrrrrryyyyyrrrrr"/>
		<phase duration="100" state="rrrrrrrrrrrrrrrrrrrr"/>
		<phase duration="100" state="rrrrrrrrrrrrrrrGGGGG"/>
		<phase duration="100" state="rrrrrrrrrrrrrrryyyyy"/>
		<phase duration="100" state="rrrrrrrrrrrrrrrrrrrr"/>
	</tlLogic>
	<tlLogic id="TL10" type="static" programID="0" offset="0">
		<phase duration="100" state="GGGGrrrrrrGGGGrrrrrr"/>
		<phase duration="100" state="yyyyrrrrrryyyyrrrrrr"/>
		<phase duration="100" state="rrrrrrrrrrrrrrrrrrrr"/>
		<phase duration="100" state="rrrrGrrrrrrrrrGrrrrr"/>
		<phase duration="100" state="rrrryrrrrrrrrryrrrrr"/>
		<phase duration="100" state="rrrrrrrrrrrrrrrrrrrr"/>
		<phase duration="100" state="rrrrrGGGGrrrrrrGGGGr"/>
		<phase duration="100" state="rrrrryyyyrrrrrryyyyr"/>
		<phase duration="100" state="rrrrrrrrrrrrrrrrrrrr"/>
		<phase duration="100" state="rrrrrrrrrGrrrrrrrrrG"/>
		<phase duration="100" state="rrrrrrrrryrrrrrrrrry"/>
		<phase duration="100" state="rrrrrrrrrrrrrrrrrrrr"/>
		<phase duration="100" state="GGGGGrrrrrrrrrrrrrrr"/>
		<phase duration="100" state="yyyyyrrrrrrrrrrrrrrr"/>
		<phase duration="100" state="rrrrrrrrrrrrrrrrrrrr"/>
		<phase duration="100" state="rrrrrGGGGGrrrrrrrrrr"/>
		<phase duration="100" state="rrrrryyyyyrrrrrrrrrr"/>
		<phase duration="100" state="rrrrrrrrrrrrrrrrrrrr"/>
		<phase duration="100" state="rrrrrrrrrrGGGGGrrrrr"/>
		<phase duration="100" state="rrrrrrrrrryyyyyrrrrr"/>
		<phase duration="100" state="rrrrrrrrrrrrrrrrrrrr"/>
		<phase duration="100" state="rrrrrrrrrrrrrrrGGGGG"/>
		<phase duration="100" state="rrrrrrrrrrrrrrryyyyy"/>
		<phase duration="100" state="rrrrrrrrrrrrrrrrrrrr"/>
	</tlLogic>
	<tlLogic id="TL11" type="static" programID="0" offset="0">
		<phase duration="100" state="GGGGrrrrrrGGGGrrrrrr"/>
		<phase duration="100" state="yyyyrrrrrryyyyrrrrrr"/>
		<phase duration="100" state="rrrrrrrrrrrrrrrrrrrr"/>
		<phase duration="100" state="rrrrGrrrrrrrrrGrrrrr"/>
		<phase duration="100" state="rrrryrrrrrrrrryrrrrr"/>
		<phase duration="100" state="rrrrrrrrrrrrrrrrrrrr"/>
		<phase duration="100" state="rrrrrGGGGrrrrrrGGGGr"/>
		<phase duration="100" state="rrrrryyyyrrrrrryyyyr"/>
		<phase duration="100" state="rrrrrrrrrrrrrrrrrrrr"/>
		<phase duration="100" state="rrrrrrrrrGrrrrrrrrrG"/>
		<phase duration="100" state="rrrrrrrrryrrrrrrrrry"/>
		<phase duration="100" state="rrrrrrrrrrrrrrrrrrrr"/>
		<phase duration="100" state="GGGGGrrrrrrrrrrrrrrr"/>
		<phase duration="100" state="yyyyyrrrrrrrrrrrrrrr"/>
		<phase duration="100" state="rrrrrrrrrrrrrrrrrrrr"/>
		<phase duration="100" state="rrrrrGGGGGrrrrrrrrrr"/>
		<phase duration="100" state="rrrrryyyyyrrrrrrrrrr"/>
		<phase duration="100" state="rrrrrrrrrrrrrrrrrrrr"/>
		<phase duration="100" state="rrrrrrrrrrGGGGGrrrrr"/>
		<phase duration="100" state="rrrrrrrrrryyyyyrrrrr"/>
		<phase duration="100" state="rrrrrrrrrrrrrrrrrrrr"/>
		<phase duration="100" state="rrrrrrrrrrrrrrrGGGGG"/>
		<phase duration="100" state="rrrrrrrrrrrrrrryyyyy"/>
		<phase duration="100" state="rrrrrrrrrrrrrrrrrrrr"/>
	</tlLogic>
	<tlLogic id="TL12" type="static" programID="0" offset="0">
		<phase duration="100" state="GGGGrrrrrrGGGGrrrrrr"/>
		<phase duration="100" state="yyyyrrrrrryyyyrrrrrr"/>
		<phase duration="100" state="rrrrrrrrrrrrrrrrrrrr"/>
		<phase duration="100" state="rrrrGrrrrrrrrrGrrrrr"/>
		<phase duration="100" state="rrrryrrrrrrrrryrrrrr"/>
		<phase duration="100" state="rrrrrrrrrrrrrrrrrrrr"/>
		<phase duration="100" state="rrrrrGGGGrrrrrrGGGGr"/>
		<phase duration="100" state="rrrrryyyyrrrrrryyyyr"/>
		<phase duration="100" state="rrrrrrrrrrrrrrrrrrrr"/>
		<phase duration="100" state="rrrrrrrrrGrrrrrrrrrG"/>
		<phase duration="100" state="rrrrrrrrryrrrrrrrrry"/>
		<phase duration="100" state="rrrrrrrrrrrrrrrrrrrr"/>
		<phase duration="100" state="GGGGGrrrrrrrrrrrrrrr"/>
		<phase duration="100" state="yyyyyrrrrrrrrrrrrrrr"/>
		<phase duration="100" state="rrrrrrrrrrrrrrrrrrrr"/>
		<phase duration="100" state="rrrrrGGGGGrrrrrrrrrr"/>
		<phase duration="100" state="rrrrryyyyyrrrrrrrrrr"/>
		<phase duration="100" state="rrrrrrrrrrrrrrrrrrrr"/>
		<phase duration="100" state="rrrrrrrrrrGGGGGrrrrr"/>
		<phase duration="100" state="rrrrrrrrrryyyyyrrrrr"/>
		<phase duration="100" state="rrrrrrrrrrrrrrrrrrrr"/>
		<phase duration="100" state="rrrrrrrrrrrrrrrGGGGG"/>
		<phase duration="100" state="rrrrrrrrrrrrrrryyyyy"/>
		<phase duration="100" state="rrrrrrrrrrrrrrrrrrrr"/>
	</tlLogic>
	<tlLogic id="TL13" type="static" programID="0" offset="0">
		<phase duration="100" state="GGGGrrrrrrGGGGrrrrrr"/>
		<phase duration="100" state="yyyyrrrrrryyyyrrrrrr"/>
		<phase duration="100" state="rrrrrrrrrrrrrrrrrrrr"/>
		<phase duration="100" state="rrrrGrrrrrrrrrGrrrrr"/>
		<phase duration="100" state="rrrryrrrrrrrrryrrrrr"/>
		<phase duration="100" state="rrrrrrrrrrrrrrrrrrrr"/>
		<phase duration="100" state="rrrrrGGGGrrrrrrGGGGr"/>
		<phase duration="100" state="rrrrryyyyrrrrrryyyyr"/>
		<phase duration="100" state="rrrrrrrrrrrrrrrrrrrr"/>
		<phase duration="100" state="rrrrrrrrrGrrrrrrrrrG"/>
		<phase duration="100" state="rrrrrrrrryrrrrrrrrry"/>
		<phase duration="100" state="rrrrrrrrrrrrrrrrrrrr"/>
		<phase duration="100" state="GGGGGrrrrrrrrrrrrrrr"/>
		<phase duration="100" state="yyyyyrrrrrrrrrrrrrrr"/>
		<phase duration="100" state="rrrrrrrrrrrrrrrrrrrr"/>
		<phase duration="100" state="rrrrrGGGGGrrrrrrrrrr"/>
		<phase duration="100" state="rrrrryyyyyrrrrrrrrrr"/>
		<phase duration="100" state="rrrrrrrrrrrrrrrrrrrr"/>
		<phase duration="100" state="rrrrrrrrrrGGGGGrrrrr"/>
		<phase duration="100" state="rrrrrrrrrryyyyyrrrrr"/>
		<phase duration="100" state="rrrrrrrrrrrrrrrrrrrr"/>
		<phase duration="100" state="rrrrrrrrrrrrrrrGGGGG"/>
		<phase duration="100" state="rrrrrrrrrrrrrrryyyyy"/>
		<phase duration="100" state="rrrrrrrrrrrrrrrrrrrr"/>
	</tlLogic>
	<tlLogic id="TL14" type="static" programID="0" offset="0">
		<phase duration="100" state="GGGGrrrrrrGGGGrrrrrr"/>
		<phase duration="100" state="yyyyrrrrrryyyyrrrrrr"/>
		<phase duration="100" state="rrrrrrrrrrrrrrrrrrrr"/>
		<phase duration="100" state="rrrrGrrrrrrrrrGrrrrr"/>
		<phase duration="100" state="rrrryrrrrrrrrryrrrrr"/>
		<phase duration="100" state="rrrrrrrrrrrrrrrrrrrr"/>
		<phase duration="100" state="rrrrrGGGGrrrrrrGGGGr"/>
		<phase duration="100" state="rrrrryyyyrrrrrryyyyr"/>
		<phase duration="100" state="rrrrrrrrrrrrrrrrrrrr"/>
		<phase duration="100" state="rrrrrrrrrGrrrrrrrrrG"/>
		<phase duration="100" state="rrrrrrrrryrrrrrrrrry"/>
		<phase duration="100" state="rrrrrrrrrrrrrrrrrrrr"/>
		<phase duration="100" state="GGGGGrrrrrrrrrrrrrrr"/>
		<phase duration="100" state="yyyyyrrrrrrrrrrrrrrr"/>
		<phase duration="100" state="rrrrrrrrrrrrrrrrrrrr"/>
		<phase duration="100" state="rrrrrGGGGGrrrrrrrrrr"/>
		<phase duration="100" state="rrrrryyyyyrrrrrrrrrr"/>
		<phase duration="100" state="rrrrrrrrrrrrrrrrrrrr"/>
		<phase duration="100" state="rrrrrrrrrrGGGGGrrrrr"/>
		<phase duration="100" state="rrrrrrrrrryyyyyrrrrr"/>
		<phase duration="100" state="rrrrrrrrrrrrrrrrrrrr"/>
		<phase duration="100" state="rrrrrrrrrrrrrrrGGGGG"/>
		<phase duration="100" state="rrrrrrrrrrrrrrryyyyy"/>
		<phase duration="100" state="rrrrrrrrrrrrrrrrrrrr"/>
	</tlLogic>
	<tlLogic id="TL15" type="static" programID="0" offset="0">
		<phase duration="100" state="GGGGrrrrrrGGGGrrrrrr"/>
		<phase duration="100" state="yyyyrrrrrryyyyrrrrrr"/>
		<phase duration="100" state="rrrrrrrrrrrrrrrrrrrr"/>
		<phase duration="100" state="rrrrGrrrrrrrrrGrrrrr"/>
		<phase duration="100" state="rrrryrrrrrrrrryrrrrr"/>
		<phase duration="100" state="rrrrrrrrrrrrrrrrrrrr"/>
		<phase duration="100" state="rrrrrGGGGrrrrrrGGGGr"/>
		<phase duration="100" state="rrrrryyyyrrrrrryyyyr"/>
		<phase duration="100" state="rrrrrrrrrrrrrrrrrrrr"/>
		<phase duration="100" state="rrrrrrrrrGrrrrrrrrrG"/>
		<phase duration="100" state="rrrrrrrrryrrrrrrrrry"/>
		<phase duration="100" state="rrrrrrrrrrrrrrrrrrrr"/>
		<phase duration="100" state="GGGGGrrrrrrrrrrrrrrr"/>
		<phase duration="100" state="yyyyyrrrrrrrrrrrrrrr"/>
		<phase duration="100" state="rrrrrrrrrrrrrrrrrrrr"/>
		<phase duration="100" state="rrrrrGGGGGrrrrrrrrrr"/>
		<phase duration="100" state="rrrrryyyyyrrrrrrrrrr"/>
		<phase duration="100" state="rrrrrrrrrrrrrrrrrrrr"/>
		<phase duration="100" state="rrrrrrrrrrGGGGGrrrrr"/>
		<phase duration="100" state="rrrrrrrrrryyyyyrrrrr"/>
		<phase duration="100" state="rrrrrrrrrrrrrrrrrrrr"/>
		<phase duration="100" state="rrrrrrrrrrrrrrrGGGGG"/>
		<phase duration="100" state="rrrrrrrrrrrrrrryyyyy"/>
		<phase duration="100" state="rrrrrrrrrrrrrrrrrrrr"/>
	</tlLogic>
	<tlLogic id="TL16" type="static" programID="0" offset="0">
		<phase duration="100" state="GGGGrrrrrrGGGGrrrrrr"/>
		<phase duration="100" state="yyyyrrrrrryyyyrrrrrr"/>
		<phase duration="100" state="rrrrrrrrrrrrrrrrrrrr"/>
		<phase duration="100" state="rrrrGrrrrrrrrrGrrrrr"/>
		<phase duration="100" state="rrrryrrrrrrrrryrrrrr"/>
		<phase duration="100" state="rrrrrrrrrrrrrrrrrrrr"/>
		<phase duration="100" state="rrrrrGGGGrrrrrrGGGGr"/>
		<phase duration="100" state="rrrrryyyyrrrrrryyyyr"/>
		<phase duration="100" state="rrrrrrrrrrrrrrrrrrrr"/>
		<phase duration="100" state="rrrrrrrrrGrrrrrrrrrG"/>
		<phase duration="100" state="rrrrrrrrryrrrrrrrrry"/>
		<phase duration="100" state="rrrrrrrrrrrrrrrrrrrr"/>
		<phase duration="100" state="GGGGGrrrrrrrrrrrrrrr"/>
		<phase duration="100" state="yyyyyrrrrrrrrrrrrrrr"/>
		<phase duration="100" state="rrrrrrrrrrrrrrrrrrrr"/>
		<phase duration="100" state="rrrrrGGGGGrrrrrrrrrr"/>
		<phase duration="100" state="rrrrryyyyyrrrrrrrrrr"/>
		<phase duration="100" state="rrrrrrrrrrrrrrrrrrrr"/>
		<phase duration="100" state="rrrrrrrrrrGGGGGrrrrr"/>
		<phase duration="100" state="rrrrrrrrrryyyyyrrrrr"/>
		<phase duration="100" state="rrrrrrrrrrrrrrrrrrrr"/>
		<phase duration="100" state="rrrrrrrrrrrrrrrGGGGG"/>
		<phase duration="100" state="rrrrrrrrrrrrrrryyyyy"/>
		<phase duration="100" state="rrrrrrrrrrrrrrrrrrrr"/>
	</tlLogic>
	<tlLogic id="TL17" type="static" programID="0" offset="0">
		<phase duration="100" state="GGGGrrrrrrGGGGrrrrrr"/>
		<phase duration="100" state="yyyyrrrrrryyyyrrrrrr"/>
		<phase duration="100" state="rrrrrrrrrrrrrrrrrrrr"/>
		<phase duration="100" state="rrrrGrrrrrrrrrGrrrrr"/>
		<phase duration="100" state="rrrryrrrrrrrrryrrrrr"/>
		<phase duration="100" state="rrrrrrrrrrrrrrrrrrrr"/>
		<phase duration="100" state="rrrrrGGGGrrrrrrGGGGr"/>
		<phase duration="100" state="rrrrryyyyrrrrrryyyyr"/>
		<phase duration="100" state="rrrrrrrrrrrrrrrrrrrr"/>
		<phase duration="100" state="rrrrrrrrrGrrrrrrrrrG"/>
		<phase duration="100" state="rrrrrrrrryrrrrrrrrry"/>
		<phase duration="100" state="rrrrrrrrrrrrrrrrrrrr"/>
		<phase duration="100" state="GGGGGrrrrrrrrrrrrrrr"/>
		<phase duration="100" state="yyyyyrrrrrrrrrrrrrrr"/>
		<phase duration="100" state="rrrrrrrrrrrrrrrrrrrr"/>
		<phase duration="100" state="rrrrrGGGGGrrrrrrrrrr"/>
		<phase duration="100" state="rrrrryyyyyrrrrrrrrrr"/>
		<phase duration="100" state="rrrrrrrrrrrrrrrrrrrr"/>
		<phase duration="100" state="rrrrrrrrrrGGGGGrrrrr"/>
		<phase duration="100" state="rrrrrrrrrryyyyyrrrrr"/>
		<phase duration="100" state="rrrrrrrrrrrrrrrrrrrr"/>
		<phase duration="100" state="rrrrrrrrrrrrrrrGGGGG"/>
		<phase duration="100" state="rrrrrrrrrrrrrrryyyyy"/>
		<phase duration="100" state="rrrrrrrrrrrrrrrrrrrr"/>
	</tlLogic>
	<tlLogic id="TL18" type="static" programID="0" offset="0">
		<phase duration="100" state="GGGGrrrrrrGGGGrrrrrr"/>
		<phase duration="100" state="yyyyrrrrrryyyyrrrrrr"/>
		<phase duration="100" state="rrrrrrrrrrrrrrrrrrrr"/>
		<phase duration="100" state="rrrrGrrrrrrrrrGrrrrr"/>
		<phase duration="100" state="rrrryrrrrrrrrryrrrrr"/>
		<phase duration="100" state="rrrrrrrrrrrrrrrrrrrr"/>
		<phase duration="100" state="rrrrrGGGGrrrrrrGGGGr"/>
		<phase duration="100" state="rrrrryyyyrrrrrryyyyr"/>
		<phase duration="100" state="rrrrrrrrrrrrrrrrrrrr"/>
		<phase duration="100" state="rrrrrrrrrGrrrrrrrrrG"/>
		<phase duration="100" state="rrrrrrrrryrrrrrrrrry"/>
		<phase duration="100" state="rrrrrrrrrrrrrrrrrrrr"/>
		<phase duration="100" state="GGGGGrrrrrrrrrrrrrrr"/>
		<phase duration="100" state="yyyyyrrrrrrrrrrrrrrr"/>
		<phase duration="100" state="rrrrrrrrrrrrrrrrrrrr"/>
		<phase duration="100" state="rrrrrGGGGGrrrrrrrrrr"/>
		<phase duration="100" state="rrrrryyyyyrrrrrrrrrr"/>
		<phase duration="100" state="rrrrrrrrrrrrrrrrrrrr"/>
		<phase duration="100" state="rrrrrrrrrrGGGGGrrrrr"/>
		<phase duration="100" state="rrrrrrrrrryyyyyrrrrr"/>
		<phase duration="100" state="rrrrrrrrrrrrrrrrrrrr"/>
		<phase duration="100" state="rrrrrrrrrrrrrrrGGGGG"/>
		<phase duration="100" state="rrrrrrrrrrrrrrryyyyy"/>
		<phase duration="100" state="rrrrrrrrrrrrrrrrrrrr"/>
	</tlLogic>
	<tlLogic id="TL19" type="static" programID="0" offset="0">
		<phase duration="100" state="GGGGrrrrrrGGGGrrrrrr"/>
		<phase duration="100" state="yyyyrrrrrryyyyrrrrrr"/>
		<phase duration="100" state="rrrrrrrrrrrrrrrrrrrr"/>
		<phase duration="100" state="rrrrGrrrrrrrrrGrrrrr"/>
		<phase duration="100" state="rrrryrrrrrrrrryrrrrr"/>
		<phase duration="100" state="rrrrrrrrrrrrrrrrrrrr"/>
		<phase duration="100" state="rrrrrGGGGrrrrrrGGGGr"/>
		<phase duration="100" state="rrrrryyyyrrrrrryyyyr"/>
		<phase duration="100" state="rrrrrrrrrrrrrrrrrrrr"/>
		<phase duration="100" state="rrrrrrrrrGrrrrrrrrrG"/>
		<phase duration="100" state="rrrrrrrrryrrrrrrrrry"/>
		<phase duration="100" state="rrrrrrrrrrrrrrrrrrrr"/>
		<phase duration="100" state="GGGGGrrrrrrrrrrrrrrr"/>
		<phase duration="100" state="yyyyyrrrrrrrrrrrrrrr"/>
		<phase duration="100" state="rrrrrrrrrrrrrrrrrrrr"/>
		<phase duration="100" state="rrrrrGGGGGrrrrrrrrrr"/>
		<phase duration="100" state="rrrrryyyyyrrrrrrrrrr"/>
		<phase duration="100" state="rrrrrrrrrrrrrrrrrrrr"/>
		<phase duration="100" state="rrrrrrrrrrGGGGGrrrrr"/>
		<phase duration="100" state="rrrrrrrrrryyyyyrrrrr"/>
		<phase duration="100" state="rrrrrrrrrrrrrrrrrrrr"/>
		<phase duration="100" state="rrrrrrrrrrrrrrrGGGGG"/>
		<phase duration="100" state="rrrrrrrrrrrrrrryyyyy"/>
		<phase duration="100" state="rrrrrrrrrrrrrrrrrrrr"/>
	</tlLogic>
	<tlLogic id="TL20" type="static" programID="0" offset="0">
		<phase duration="100" state="GGGGrrrrrrGGGGrrrrrr"/>
		<phase duration="100" state="yyyyrrrrrryyyyrrrrrr"/>
		<phase duration="100" state="rrrrrrrrrrrrrrrrrrrr"/>
		<phase duration="100" state="rrrrGrrrrrrrrrGrrrrr"/>
		<phase duration="100" state="rrrryrrrrrrrrryrrrrr"/>
		<phase duration="100" state="rrrrrrrrrrrrrrrrrrrr"/>
		<phase duration="100" state="rrrrrGGGGrrrrrrGGGGr"/>
		<phase duration="100" state="rrrrryyyyrrrrrryyyyr"/>
		<phase duration="100" state="rrrrrrrrrrrrrrrrrrrr"/>
		<phase duration="100" state="rrrrrrrrrGrrrrrrrrrG"/>
		<phase duration="100" state="rrrrrrrrryrrrrrrrrry"/>
		<phase duration="100" state="rrrrrrrrrrrrrrrrrrrr"/>
		<phase duration="100" state="GGGGGrrrrrrrrrrrrrrr"/>
		<phase duration="100" state="yyyyyrrrrrrrrrrrrrrr"/>
		<phase duration="100" state="rrrrrrrrrrrrrrrrrrrr"/>
		<phase duration="100" state="rrrrrGGGGGrrrrrrrrrr"/>
		<phase duration="100" state="rrrrryyyyyrrrrrrrrrr"/>
		<phase duration="100" state="rrrrrrrrrrrrrrrrrrrr"/>
		<phase duration="100" state="rrrrrrrrrrGGGGGrrrrr"/>
		<phase duration="100" state="rrrrrrrrrryyyyyrrrrr"/>
		<phase duration="100" state="rrrrrrrrrrrrrrrrrrrr"/>
		<phase duration="100" state="rrrrrrrrrrrrrrrGGGGG"/>
		<phase duration="100" state="rrrrrrrrrrrrrrryyyyy"/>
		<phase duration="100" state="rrrrrrrrrrrrrrrrrrrr"/>
	</tlLogic>
	<tlLogic id="TL21" type="static" programID="0" offset="0">
		<phase duration="100" state="GGGGrrrrrrGGGGrrrrrr"/>
		<phase duration="100" state="yyyyrrrrrryyyyrrrrrr"/>
		<phase duration="100" state="rrrrrrrrrrrrrrrrrrrr"/>
		<phase duration="100" state="rrrrGrrrrrrrrrGrrrrr"/>
		<phase duration="100" state="rrrryrrrrrrrrryrrrrr"/>
		<phase duration="100" state="rrrrrrrrrrrrrrrrrrrr"/>
		<phase duration="100" state="rrrrrGGGGrrrrrrGGGGr"/>
		<phase duration="100" state="rrrrryyyyrrrrrryyyyr"/>
		<phase duration="100" state="rrrrrrrrrrrrrrrrrrrr"/>
		<phase duration="100" state="rrrrrrrrrGrrrrrrrrrG"/>
		<phase duration="100" state="rrrrrrrrryrrrrrrrrry"/>
		<phase duration="100" state="rrrrrrrrrrrrrrrrrrrr"/>
		<phase duration="100" state="GGGGGrrrrrrrrrrrrrrr"/>
		<phase duration="100" state="yyyyyrrrrrrrrrrrrrrr"/>
		<phase duration="100" state="rrrrrrrrrrrrrrrrrrrr"/>
		<phase duration="100" state="rrrrrGGGGGrrrrrrrrrr"/>
		<phase duration="100" state="rrrrryyyyyrrrrrrrrrr"/>
		<phase duration="100" state="rrrrrrrrrrrrrrrrrrrr"/>
		<phase duration="100" state="rrrrrrrrrrGGGGGrrrrr"/>
		<phase duration="100" state="rrrrrrrrrryyyyyrrrrr"/>
		<phase duration="100" state="rrrrrrrrrrrrrrrrrrrr"/>
		<phase duration="100" state="rrrrrrrrrrrrrrrGGGGG"/>
		<phase duration="100" state="rrrrrrrrrrrrrrryyyyy"/>
		<phase duration="100" state="rrrrrrrrrrrrrrrrrrrr"/>
	</tlLogic>
	<tlLogic id="TL22" type="static" programID="0" offset="0">
		<phase duration="100" state="GGGGrrrrrrGGGGrrrrrr"/>
		<phase duration="100" state="yyyyrrrrrryyyyrrrrrr"/>
		<phase duration="100" state="rrrrrrrrrrrrrrrrrrrr"/>
		<phase duration="100" state="rrrrGrrrrrrrrrGrrrrr"/>
		<phase duration="100" state="rrrryrrrrrrrrryrrrrr"/>
		<phase duration="100" state="rrrrrrrrrrrrrrrrrrrr"/>
		<phase duration="100" state="rrrrrGGGGrrrrrrGGGGr"/>
		<phase duration="100" state="rrrrryyyyrrrrrryyyyr"/>
		<phase duration="100" state="rrrrrrrrrrrrrrrrrrrr"/>
		<phase duration="100" state="rrrrrrrrrGrrrrrrrrrG"/>
		<phase duration="100" state="rrrrrrrrryrrrrrrrrry"/>
		<phase duration="100" state="rrrrrrrrrrrrrrrrrrrr"/>