<?xml version="1.0" encoding="UTF-8"?>

<!-- generated on 2021-12-08 14:24:55 by Eclipse SUMO netconvert Version 1.9.1
<configuration xmlns:xsi="http://www.w3.org/2001/XMLSchema-instance" xsi:noNamespaceSchemaLocation="http://sumo.dlr.de/xsd/netconvertConfiguration.xsd">

    <input>
        <node-files value="intersection/Ingolstadt_50_Nodes.nod.xml"/>
        <edge-files value="intersection/Ingolstadt_85_Edges.edg.xml"/>
        <connection-files value="intersection/Ingolstadt_230_Connections.con.xml"/>
        <tllogic-files value="intersection/Ingolstadt_50_TrafficLights.tll.xml"/>
    </input>

    <output>
        <output-file value="intersection/Ingolstadt_Environment.net.xml"/>
    </output>

    <report>
        <aggregate-warnings value="5"/>
    </report>

</configuration>
-->

<net version="1.9" junctionCornerDetail="5" limitTurnSpeed="5.50" xmlns:xsi="http://www.w3.org/2001/XMLSchema-instance" xsi:noNamespaceSchemaLocation="http://sumo.dlr.de/xsd/net_file.xsd">

    <location netOffset="-50.00,-50.00" convBoundary="0.00,0.00,1500.00,1700.00" origBoundary="50.00,50.00,1550.00,1750.00" projParameter="!"/>

    <edge id=":1_0" function="internal">
        <lane id=":1_0_0" index="0" speed="6.51" length="9.03" shape="138.80,166.80 138.45,164.35 137.40,162.60 135.65,161.55 133.20,161.20"/>
    </edge>
    <edge id=":1_1" function="internal">
        <lane id=":1_1_0" index="0" speed="13.90" length="33.60" shape="138.80,166.80 138.80,133.20"/>
        <lane id=":1_1_1" index="1" speed="13.90" length="33.60" shape="142.00,166.80 142.00,133.20"/>
        <lane id=":1_1_2" index="2" speed="13.90" length="33.60" shape="145.20,166.80 145.20,133.20"/>
    </edge>
    <edge id=":1_4" function="internal">
        <lane id=":1_4_0" index="0" speed="11.36" length="29.67" shape="148.40,166.80 149.55,158.75 153.00,153.00 158.75,149.55 166.80,148.40"/>
    </edge>
    <edge id=":1_5" function="internal">
        <lane id=":1_5_0" index="0" speed="6.51" length="9.03" shape="166.80,161.20 164.35,161.55 162.60,162.60 161.55,164.35 161.20,166.80"/>
    </edge>
    <edge id=":1_6" function="internal">
        <lane id=":1_6_0" index="0" speed="13.90" length="33.60" shape="166.80,161.20 133.20,161.20"/>
        <lane id=":1_6_1" index="1" speed="13.90" length="33.60" shape="166.80,158.00 133.20,158.00"/>
        <lane id=":1_6_2" index="2" speed="13.90" length="33.60" shape="166.80,154.80 133.20,154.80"/>
    </edge>
    <edge id=":1_9" function="internal">
        <lane id=":1_9_0" index="0" speed="11.36" length="29.67" shape="166.80,151.60 158.75,150.45 153.00,147.00 149.55,141.25 148.40,133.20"/>
    </edge>
    <edge id=":1_10" function="internal">
        <lane id=":1_10_0" index="0" speed="6.51" length="9.03" shape="161.20,133.20 161.55,135.65 162.60,137.40 164.35,138.45 166.80,138.80"/>
    </edge>
    <edge id=":1_11" function="internal">
        <lane id=":1_11_0" index="0" speed="13.90" length="33.60" shape="161.20,133.20 161.20,166.80"/>
        <lane id=":1_11_1" index="1" speed="13.90" length="33.60" shape="158.00,133.20 158.00,166.80"/>
        <lane id=":1_11_2" index="2" speed="13.90" length="33.60" shape="154.80,133.20 154.80,166.80"/>
    </edge>
    <edge id=":1_14" function="internal">
        <lane id=":1_14_0" index="0" speed="11.36" length="29.67" shape="151.60,133.20 150.45,141.25 147.00,147.00 141.25,150.45 133.20,151.60"/>
    </edge>
    <edge id=":1_15" function="internal">
        <lane id=":1_15_0" index="0" speed="6.51" length="9.03" shape="133.20,138.80 135.65,138.45 137.40,137.40 138.45,135.65 138.80,133.20"/>
    </edge>
    <edge id=":1_16" function="internal">
        <lane id=":1_16_0" index="0" speed="13.90" length="33.60" shape="133.20,138.80 166.80,138.80"/>
        <lane id=":1_16_1" index="1" speed="13.90" length="33.60" shape="133.20,142.00 166.80,142.00"/>
        <lane id=":1_16_2" index="2" speed="13.90" length="33.60" shape="133.20,145.20 166.80,145.20"/>
    </edge>
    <edge id=":1_19" function="internal">
        <lane id=":1_19_0" index="0" speed="11.36" length="29.67" shape="133.20,148.40 141.25,149.55 147.00,153.00 150.45,158.75 151.60,166.80"/>
    </edge>
    <edge id=":10_0" function="internal">
        <lane id=":10_0_0" index="0" speed="6.51" length="9.03" shape="138.80,766.80 138.45,764.35 137.40,762.60 135.65,761.55 133.20,761.20"/>
    </edge>
    <edge id=":10_1" function="internal">
        <lane id=":10_1_0" index="0" speed="13.90" length="33.60" shape="138.80,766.80 138.80,733.20"/>
        <lane id=":10_1_1" index="1" speed="13.90" length="33.60" shape="142.00,766.80 142.00,733.20"/>
        <lane id=":10_1_2" index="2" speed="13.90" length="33.60" shape="145.20,766.80 145.20,733.20"/>
    </edge>
    <edge id=":10_4" function="internal">
        <lane id=":10_4_0" index="0" speed="11.36" length="29.67" shape="148.40,766.80 149.55,758.75 153.00,753.00 158.75,749.55 166.80,748.40"/>
    </edge>
    <edge id=":10_5" function="internal">
        <lane id=":10_5_0" index="0" speed="6.51" length="9.03" shape="166.80,761.20 164.35,761.55 162.60,762.60 161.55,764.35 161.20,766.80"/>
    </edge>
    <edge id=":10_6" function="internal">
        <lane id=":10_6_0" index="0" speed="13.90" length="33.60" shape="166.80,761.20 133.20,761.20"/>
        <lane id=":10_6_1" index="1" speed="13.90" length="33.60" shape="166.80,758.00 133.20,758.00"/>
        <lane id=":10_6_2" index="2" speed="13.90" length="33.60" shape="166.80,754.80 133.20,754.80"/>
    </edge>
    <edge id=":10_9" function="internal">
        <lane id=":10_9_0" index="0" speed="11.36" length="29.67" shape="166.80,751.60 158.75,750.45 153.00,747.00 149.55,741.25 148.40,733.20"/>
    </edge>
    <edge id=":10_10" function="internal">
        <lane id=":10_10_0" index="0" speed="6.51" length="9.03" shape="161.20,733.20 161.55,735.65 162.60,737.40 164.35,738.45 166.80,738.80"/>
    </edge>
    <edge id=":10_11" function="internal">
        <lane id=":10_11_0" index="0" speed="13.90" length="33.60" shape="161.20,733.20 161.20,766.80"/>
        <lane id=":10_11_1" index="1" speed="13.90" length="33.60" shape="158.00,733.20 158.00,766.80"/>
        <lane id=":10_11_2" index="2" speed="13.90" length="33.60" shape="154.80,733.20 154.80,766.80"/>
    </edge>
    <edge id=":10_14" function="internal">
        <lane id=":10_14_0" index="0" speed="11.36" length="29.67" shape="151.60,733.20 150.45,741.25 147.00,747.00 141.25,750.45 133.20,751.60"/>
    </edge>
    <edge id=":10_15" function="internal">
        <lane id=":10_15_0" index="0" speed="6.51" length="9.03" shape="133.20,738.80 135.65,738.45 137.40,737.40 138.45,735.65 138.80,733.20"/>
    </edge>
    <edge id=":10_16" function="internal">
        <lane id=":10_16_0" index="0" speed="13.90" length="33.60" shape="133.20,738.80 166.80,738.80"/>
        <lane id=":10_16_1" index="1" speed="13.90" length="33.60" shape="133.20,742.00 166.80,742.00"/>
        <lane id=":10_16_2" index="2" speed="13.90" length="33.60" shape="133.20,745.20 166.80,745.20"/>
    </edge>
    <edge id=":10_19" function="internal">
        <lane id=":10_19_0" index="0" speed="11.36" length="29.67" shape="133.20,748.40 141.25,749.55 147.00,753.00 150.45,758.75 151.60,766.80"/>
    </edge>
    <edge id=":11_0" function="internal">
        <lane id=":11_0_0" index="0" speed="6.51" length="9.03" shape="338.80,766.80 338.45,764.35 337.40,762.60 335.65,761.55 333.20,761.20"/>
    </edge>
    <edge id=":11_1" function="internal">
        <lane id=":11_1_0" index="0" speed="13.90" length="33.60" shape="338.80,766.80 338.80,733.20"/>
        <lane id=":11_1_1" index="1" speed="13.90" length="33.60" shape="342.00,766.80 342.00,733.20"/>
        <lane id=":11_1_2" index="2" speed="13.90" length="33.60" shape="345.20,766.80 345.20,733.20"/>
    </edge>
    <edge id=":11_4" function="internal">
        <lane id=":11_4_0" index="0" speed="11.36" length="29.67" shape="348.40,766.80 349.55,758.75 353.00,753.00 358.75,749.55 366.80,748.40"/>
    </edge>
    <edge id=":11_5" function="internal">
        <lane id=":11_5_0" index="0" speed="6.51" length="9.03" shape="366.80,761.20 364.35,761.55 362.60,762.60 361.55,764.35 361.20,766.80"/>
    </edge>
    <edge id=":11_6" function="internal">
        <lane id=":11_6_0" index="0" speed="13.90" length="33.60" shape="366.80,761.20 333.20,761.20"/>
        <lane id=":11_6_1" index="1" speed="13.90" length="33.60" shape="366.80,758.00 333.20,758.00"/>
        <lane id=":11_6_2" index="2" speed="13.90" length="33.60" shape="366.80,754.80 333.20,754.80"/>
    </edge>
    <edge id=":11_9" function="internal">
        <lane id=":11_9_0" index="0" speed="11.36" length="29.67" shape="366.80,751.60 358.75,750.45 353.00,747.00 349.55,741.25 348.40,733.20"/>
    </edge>
    <edge id=":11_10" function="internal">
        <lane id=":11_10_0" index="0" speed="6.51" length="9.03" shape="361.20,733.20 361.55,735.65 362.60,737.40 364.35,738.45 366.80,738.80"/>
    </edge>
    <edge id=":11_11" function="internal">
        <lane id=":11_11_0" index="0" speed="13.90" length="33.60" shape="361.20,733.20 361.20,766.80"/>
        <lane id=":11_11_1" index="1" speed="13.90" length="33.60" shape="358.00,733.20 358.00,766.80"/>
        <lane id=":11_11_2" index="2" speed="13.90" length="33.60" shape="354.80,733.20 354.80,766.80"/>
    </edge>
    <edge id=":11_14" function="internal">
        <lane id=":11_14_0" index="0" speed="11.36" length="29.67" shape="351.60,733.20 350.45,741.25 347.00,747.00 341.25,750.45 333.20,751.60"/>
    </edge>
    <edge id=":11_15" function="internal">
        <lane id=":11_15_0" index="0" speed="6.51" length="9.03" shape="333.20,738.80 335.65,738.45 337.40,737.40 338.45,735.65 338.80,733.20"/>
    </edge>
    <edge id=":11_16" function="internal">
        <lane id=":11_16_0" index="0" speed="13.90" length="33.60" shape="333.20,738.80 366.80,738.80"/>
        <lane id=":11_16_1" index="1" speed="13.90" length="33.60" shape="333.20,742.00 366.80,742.00"/>
        <lane id=":11_16_2" index="2" speed="13.90" length="33.60" shape="333.20,745.20 366.80,745.20"/>
    </edge>
    <edge id=":11_19" function="internal">
        <lane id=":11_19_0" index="0" speed="11.36" length="29.67" shape="333.20,748.40 341.25,749.55 347.00,753.00 350.45,758.75 351.60,766.80"/>
    </edge>
    <edge id=":12_0" function="internal">
        <lane id=":12_0_0" index="0" speed="6.51" length="9.03" shape="538.80,766.80 538.45,764.35 537.40,762.60 535.65,761.55 533.20,761.20"/>
    </edge>
    <edge id=":12_1" function="internal">
        <lane id=":12_1_0" index="0" speed="13.90" length="33.60" shape="538.80,766.80 538.80,733.20"/>
        <lane id=":12_1_1" index="1" speed="13.90" length="33.60" shape="542.00,766.80 542.00,733.20"/>
        <lane id=":12_1_2" index="2" speed="13.90" length="33.60" shape="545.20,766.80 545.20,733.20"/>
    </edge>
    <edge id=":12_4" function="internal">
        <lane id=":12_4_0" index="0" speed="11.36" length="29.67" shape="548.40,766.80 549.55,758.75 553.00,753.00 558.75,749.55 566.80,748.40"/>
    </edge>
    <edge id=":12_5" function="internal">
        <lane id=":12_5_0" index="0" speed="6.51" length="9.03" shape="566.80,761.20 564.35,761.55 562.60,762.60 561.55,764.35 561.20,766.80"/>
    </edge>
    <edge id=":12_6" function="internal">
        <lane id=":12_6_0" index="0" speed="13.90" length="33.60" shape="566.80,761.20 533.20,761.20"/>
        <lane id=":12_6_1" index="1" speed="13.90" length="33.60" shape="566.80,758.00 533.20,758.00"/>
        <lane id=":12_6_2" index="2" speed="13.90" length="33.60" shape="566.80,754.80 533.20,754.80"/>
    </edge>
    <edge id=":12_9" function="internal">
        <lane id=":12_9_0" index="0" speed="11.36" length="29.67" shape="566.80,751.60 558.75,750.45 553.00,747.00 549.55,741.25 548.40,733.20"/>
    </edge>
    <edge id=":12_10" function="internal">
        <lane id=":12_10_0" index="0" speed="6.51" length="9.03" shape="561.20,733.20 561.55,735.65 562.60,737.40 564.35,738.45 566.80,738.80"/>
    </edge>
    <edge id=":12_11" function="internal">
        <lane id=":12_11_0" index="0" speed="13.90" length="33.60" shape="561.20,733.20 561.20,766.80"/>
        <lane id=":12_11_1" index="1" speed="13.90" length="33.60" shape="558.00,733.20 558.00,766.80"/>
        <lane id=":12_11_2" index="2" speed="13.90" length="33.60" shape="554.80,733.20 554.80,766.80"/>
    </edge>
    <edge id=":12_14" function="internal">
        <lane id=":12_14_0" index="0" speed="11.36" length="29.67" shape="551.60,733.20 550.45,741.25 547.00,747.00 541.25,750.45 533.20,751.60"/>
    </edge>
    <edge id=":12_15" function="internal">
        <lane id=":12_15_0" index="0" speed="6.51" length="9.03" shape="533.20,738.80 535.65,738.45 537.40,737.40 538.45,735.65 538.80,733.20"/>
    </edge>
    <edge id=":12_16" function="internal">
        <lane id=":12_16_0" index="0" speed="13.90" length="33.60" shape="533.20,738.80 566.80,738.80"/>
        <lane id=":12_16_1" index="1" speed="13.90" length="33.60" shape="533.20,742.00 566.80,742.00"/>
        <lane id=":12_16_2" index="2" speed="13.90" length="33.60" shape="533.20,745.20 566.80,745.20"/>
    </edge>
    <edge id=":12_19" function="internal">
        <lane id=":12_19_0" index="0" speed="11.36" length="29.67" shape="533.20,748.40 541.25,749.55 547.00,753.00 550.45,758.75 551.60,766.80"/>
    </edge>
    <edge id=":13_0" function="internal">
        <lane id=":13_0_0" index="0" speed="6.51" length="9.03" shape="738.80,766.80 738.45,764.35 737.40,762.60 735.65,761.55 733.20,761.20"/>
    </edge>
    <edge id=":13_1" function="internal">
        <lane id=":13_1_0" index="0" speed="13.90" length="33.60" shape="738.80,766.80 738.80,733.20"/>
        <lane id=":13_1_1" index="1" speed="13.90" length="33.60" shape="742.00,766.80 742.00,733.20"/>
        <lane id=":13_1_2" index="2" speed="13.90" length="33.60" shape="745.20,766.80 745.20,733.20"/>
    </edge>
    <edge id=":13_4" function="internal">
        <lane id=":13_4_0" index="0" speed="11.36" length="29.67" shape="748.40,766.80 749.55,758.75 753.00,753.00 758.75,749.55 766.80,748.40"/>
    </edge>
    <edge id=":13_5" function="internal">
        <lane id=":13_5_0" index="0" speed="6.51" length="9.03" shape="766.80,761.20 764.35,761.55 762.60,762.60 761.55,764.35 761.20,766.80"/>
    </edge>
    <edge id=":13_6" function="internal">
        <lane id=":13_6_0" index="0" speed="13.90" length="33.60" shape="766.80,761.20 733.20,761.20"/>
        <lane id=":13_6_1" index="1" speed="13.90" length="33.60" shape="766.80,758.00 733.20,758.00"/>
        <lane id=":13_6_2" index="2" speed="13.90" length="33.60" shape="766.80,754.80 733.20,754.80"/>
    </edge>
    <edge id=":13_9" function="internal">
        <lane id=":13_9_0" index="0" speed="11.36" length="29.67" shape="766.80,751.60 758.75,750.45 753.00,747.00 749.55,741.25 748.40,733.20"/>
    </edge>
    <edge id=":13_10" function="internal">
        <lane id=":13_10_0" index="0" speed="6.51" length="9.03" shape="761.20,733.20 761.55,735.65 762.60,737.40 764.35,738.45 766.80,738.80"/>
    </edge>
    <edge id=":13_11" function="internal">
        <lane id=":13_11_0" index="0" speed="13.90" length="33.60" shape="761.20,733.20 761.20,766.80"/>
        <lane id=":13_11_1" index="1" speed="13.90" length="33.60" shape="758.00,733.20 758.00,766.80"/>
        <lane id=":13_11_2" index="2" speed="13.90" length="33.60" shape="754.80,733.20 754.80,766.80"/>
    </edge>
    <edge id=":13_14" function="internal">
        <lane id=":13_14_0" index="0" speed="11.36" length="29.67" shape="751.60,733.20 750.45,741.25 747.00,747.00 741.25,750.45 733.20,751.60"/>
    </edge>
    <edge id=":13_15" function="internal">
        <lane id=":13_15_0" index="0" speed="6.51" length="9.03" shape="733.20,738.80 735.65,738.45 737.40,737.40 738.45,735.65 738.80,733.20"/>
    </edge>
    <edge id=":13_16" function="internal">
        <lane id=":13_16_0" index="0" speed="13.90" length="33.60" shape="733.20,738.80 766.80,738.80"/>
        <lane id=":13_16_1" index="1" speed="13.90" length="33.60" shape="733.20,742.00 766.80,742.00"/>
        <lane id=":13_16_2" index="2" speed="13.90" length="33.60" shape="733.20,745.20 766.80,745.20"/>
    </edge>
    <edge id=":13_19" function="internal">
        <lane id=":13_19_0" index="0" speed="11.36" length="29.67" shape="733.20,748.40 741.25,749.55 747.00,753.00 750.45,758.75 751.60,766.80"/>
    </edge>
    <edge id=":14_0" function="internal">
        <lane id=":14_0_0" index="0" speed="6.51" length="9.03" shape="738.80,566.80 738.45,564.35 737.40,562.60 735.65,561.55 733.20,561.20"/>
    </edge>
    <edge id=":14_1" function="internal">
        <lane id=":14_1_0" index="0" speed="13.90" length="33.60" shape="738.80,566.80 738.80,533.20"/>
        <lane id=":14_1_1" index="1" speed="13.90" length="33.60" shape="742.00,566.80 742.00,533.20"/>
        <lane id=":14_1_2" index="2" speed="13.90" length="33.60" shape="745.20,566.80 745.20,533.20"/>
    </edge>
    <edge id=":14_4" function="internal">
        <lane id=":14_4_0" index="0" speed="11.36" length="29.67" shape="748.40,566.80 749.55,558.75 753.00,553.00 758.75,549.55 766.80,548.40"/>
    </edge>
    <edge id=":14_5" function="internal">
        <lane id=":14_5_0" index="0" speed="6.51" length="9.03" shape="766.80,561.20 764.35,561.55 762.60,562.60 761.55,564.35 761.20,566.80"/>
    </edge>
    <edge id=":14_6" function="internal">
        <lane id=":14_6_0" index="0" speed="13.90" length="33.60" shape="766.80,561.20 733.20,561.20"/>
        <lane id=":14_6_1" index="1" speed="13.90" length="33.60" shape="766.80,558.00 733.20,558.00"/>
        <lane id=":14_6_2" index="2" speed="13.90" length="33.60" shape="766.80,554.80 733.20,554.80"/>
    </edge>
    <edge id=":14_9" function="internal">
        <lane id=":14_9_0" index="0" speed="11.36" length="29.67" shape="766.80,551.60 758.75,550.45 753.00,547.00 749.55,541.25 748.40,533.20"/>
    </edge>
    <edge id=":14_10" function="internal">
        <lane id=":14_10_0" index="0" speed="6.51" length="9.03" shape="761.20,533.20 761.55,535.65 762.60,537.40 764.35,538.45 766.80,538.80"/>
    </edge>
    <edge id=":14_11" function="internal">
        <lane id=":14_11_0" index="0" speed="13.90" length="33.60" shape="761.20,533.20 761.20,566.80"/>
        <lane id=":14_11_1" index="1" speed="13.90" length="33.60" shape="758.00,533.20 758.00,566.80"/>
        <lane id=":14_11_2" index="2" speed="13.90" length="33.60" shape="754.80,533.20 754.80,566.80"/>
    </edge>
    <edge id=":14_14" function="internal">
        <lane id=":14_14_0" index="0" speed="11.36" length="29.67" shape="751.60,533.20 750.45,541.25 747.00,547.00 741.25,550.45 733.20,551.60"/>
    </edge>
    <edge id=":14_15" function="internal">
        <lane id=":14_15_0" index="0" speed="6.51" length="9.03" shape="733.20,538.80 735.65,538.45 737.40,537.40 738.45,535.65 738.80,533.20"/>
    </edge>
    <edge id=":14_16" function="internal">
        <lane id=":14_16_0" index="0" speed="13.90" length="33.60" shape="733.20,538.80 766.80,538.80"/>
        <lane id=":14_16_1" index="1" speed="13.90" length="33.60" shape="733.20,542.00 766.80,542.00"/>
        <lane id=":14_16_2" index="2" speed="13.90" length="33.60" shape="733.20,545.20 766.80,545.20"/>
    </edge>
    <edge id=":14_19" function="internal">
        <lane id=":14_19_0" index="0" speed="11.36" length="29.67" shape="733.20,548.40 741.25,549.55 747.00,553.00 750.45,558.75 751.60,566.80"/>
    </edge>
    <edge id=":15_0" function="internal">
        <lane id=":15_0_0" index="0" speed="6.51" length="9.03" shape="738.80,366.80 738.45,364.35 737.40,362.60 735.65,361.55 733.20,361.20"/>
    </edge>
    <edge id=":15_1" function="internal">
        <lane id=":15_1_0" index="0" speed="13.90" length="33.60" shape="738.80,366.80 738.80,333.20"/>
        <lane id=":15_1_1" index="1" speed="13.90" length="33.60" shape="742.00,366.80 742.00,333.20"/>
        <lane id=":15_1_2" index="2" speed="13.90" length="33.60" shape="745.20,366.80 745.20,333.20"/>
    </edge>
    <edge id=":15_4" function="internal">
        <lane id=":15_4_0" index="0" speed="11.36" length="29.67" shape="748.40,366.80 749.55,358.75 753.00,353.00 758.75,349.55 766.80,348.40"/>
    </edge>
    <edge id=":15_5" function="internal">
        <lane id=":15_5_0" index="0" speed="6.51" length="9.03" shape="766.80,361.20 764.35,361.55 762.60,362.60 761.55,364.35 761.20,366.80"/>
    </edge>
    <edge id=":15_6" function="internal">
        <lane id=":15_6_0" index="0" speed="13.90" length="33.60" shape="766.80,361.20 733.20,361.20"/>
        <lane id=":15_6_1" index="1" speed="13.90" length="33.60" shape="766.80,358.00 733.20,358.00"/>
        <lane id=":15_6_2" index="2" speed="13.90" length="33.60" shape="766.80,354.80 733.20,354.80"/>
    </edge>
    <edge id=":15_9" function="internal">
        <lane id=":15_9_0" index="0" speed="11.36" length="29.67" shape="766.80,351.60 758.75,350.45 753.00,347.00 749.55,341.25 748.40,333.20"/>
    </edge>
    <edge id=":15_10" function="internal">
        <lane id=":15_10_0" index="0" speed="6.51" length="9.03" shape="761.20,333.20 761.55,335.65 762.60,337.40 764.35,338.45 766.80,338.80"/>
    </edge>
    <edge id=":15_11" function="internal">
        <lane id=":15_11_0" index="0" speed="13.90" length="33.60" shape="761.20,333.20 761.20,366.80"/>
        <lane id=":15_11_1" index="1" speed="13.90" length="33.60" shape="758.00,333.20 758.00,366.80"/>
        <lane id=":15_11_2" index="2" speed="13.90" length="33.60" shape="754.80,333.20 754.80,366.80"/>
    </edge>
    <edge id=":15_14" function="internal">
        <lane id=":15_14_0" index="0" speed="11.36" length="29.67" shape="751.60,333.20 750.45,341.25 747.00,347.00 741.25,350.45 733.20,351.60"/>
    </edge>
    <edge id=":15_15" function="internal">
        <lane id=":15_15_0" index="0" speed="6.51" length="9.03" shape="733.20,338.80 735.65,338.45 737.40,337.40 738.45,335.65 738.80,333.20"/>
    </edge>
    <edge id=":15_16" function="internal">
        <lane id=":15_16_0" index="0" speed="13.90" length="33.60" shape="733.20,338.80 766.80,338.80"/>
        <lane id=":15_16_1" index="1" speed="13.90" length="33.60" shape="733.20,342.00 766.80,342.00"/>
        <lane id=":15_16_2" index="2" speed="13.90" length="33.60" shape="733.20,345.20 766.80,345.20"/>
    </edge>
    <edge id=":15_19" function="internal">
        <lane id=":15_19_0" index="0" speed="11.36" length="29.67" shape="733.20,348.40 741.25,349.55 747.00,353.00 750.45,358.75 751.60,366.80"/>
    </edge>
    <edge id=":16_0" function="internal">
        <lane id=":16_0_0" index="0" speed="6.51" length="9.03" shape="738.80,166.80 738.45,164.35 737.40,162.60 735.65,161.55 733.20,161.20"/>
    </edge>
    <edge id=":16_1" function="internal">
        <lane id=":16_1_0" index="0" speed="13.90" length="33.60" shape="738.80,166.80 738.80,133.20"/>
        <lane id=":16_1_1" index="1" speed="13.90" length="33.60" shape="742.00,166.80 742.00,133.20"/>
        <lane id=":16_1_2" index="2" speed="13.90" length="33.60" shape="745.20,166.80 745.20,133.20"/>
    </edge>
    <edge id=":16_4" function="internal">
        <lane id=":16_4_0" index="0" speed="11.36" length="29.67" shape="748.40,166.80 749.55,158.75 753.00,153.00 758.75,149.55 766.80,148.40"/>
    </edge>
    <edge id=":16_5" function="internal">
        <lane id=":16_5_0" index="0" speed="6.51" length="9.03" shape="766.80,161.20 764.35,161.55 762.60,162.60 761.55,164.35 761.20,166.80"/>
    </edge>
    <edge id=":16_6" function="internal">
        <lane id=":16_6_0" index="0" speed="13.90" length="33.60" shape="766.80,161.20 733.20,161.20"/>
        <lane id=":16_6_1" index="1" speed="13.90" length="33.60" shape="766.80,158.00 733.20,158.00"/>
        <lane id=":16_6_2" index="2" speed="13.90" length="33.60" shape="766.80,154.80 733.20,154.80"/>
    </edge>
    <edge id=":16_9" function="internal">
        <lane id=":16_9_0" index="0" speed="11.36" length="29.67" shape="766.80,151.60 758.75,150.45 753.00,147.00 749.55,141.25 748.40,133.20"/>
    </edge>
    <edge id=":16_10" function="internal">
        <lane id=":16_10_0" index="0" speed="6.51" length="9.03" shape="761.20,133.20 761.55,135.65 762.60,137.40 764.35,138.45 766.80,138.80"/>
    </edge>
    <edge id=":16_11" function="internal">
        <lane id=":16_11_0" index="0" speed="13.90" length="33.60" shape="761.20,133.20 761.20,166.80"/>
        <lane id=":16_11_1" index="1" speed="13.90" length="33.60" shape="758.00,133.20 758.00,166.80"/>
        <lane id=":16_11_2" index="2" speed="13.90" length="33.60" shape="754.80,133.20 754.80,166.80"/>
    </edge>
    <edge id=":16_14" function="internal">
        <lane id=":16_14_0" index="0" speed="11.36" length="29.67" shape="751.60,133.20 750.45,141.25 747.00,147.00 741.25,150.45 733.20,151.60"/>
    </edge>
    <edge id=":16_15" function="internal">
        <lane id=":16_15_0" index="0" speed="6.51" length="9.03" shape="733.20,138.80 735.65,138.45 737.40,137.40 738.45,135.65 738.80,133.20"/>
    </edge>
    <edge id=":16_16" function="internal">
        <lane id=":16_16_0" index="0" speed="13.90" length="33.60" shape="733.20,138.80 766.80,138.80"/>
        <lane id=":16_16_1" index="1" speed="13.90" length="33.60" shape="733.20,142.00 766.80,142.00"/>
        <lane id=":16_16_2" index="2" speed="13.90" length="33.60" shape="733.20,145.20 766.80,145.20"/>
    </edge>
    <edge id=":16_19" function="internal">
        <lane id=":16_19_0" index="0" speed="11.36" length="29.67" shape="733.20,148.40 741.25,149.55 747.00,153.00 750.45,158.75 751.60,166.80"/>
    </edge>
    <edge id=":17_0" function="internal">
        <lane id=":17_0_0" index="0" speed="6.51" length="9.03" shape="138.80,966.80 138.45,964.35 137.40,962.60 135.65,961.55 133.20,961.20"/>
    </edge>
    <edge id=":17_1" function="internal">
        <lane id=":17_1_0" index="0" speed="13.90" length="33.60" shape="138.80,966.80 138.80,933.20"/>
        <lane id=":17_1_1" index="1" speed="13.90" length="33.60" shape="142.00,966.80 142.00,933.20"/>
        <lane id=":17_1_2" index="2" speed="13.90" length="33.60" shape="145.20,966.80 145.20,933.20"/>
    </edge>
    <edge id=":17_4" function="internal">
        <lane id=":17_4_0" index="0" speed="11.36" length="29.67" shape="148.40,966.80 149.55,958.75 153.00,953.00 158.75,949.55 166.80,948.40"/>
    </edge>
    <edge id=":17_5" function="internal">
        <lane id=":17_5_0" index="0" speed="6.51" length="9.03" shape="166.80,961.20 164.35,961.55 162.60,962.60 161.55,964.35 161.20,966.80"/>
    </edge>
    <edge id=":17_6" function="internal">
        <lane id=":17_6_0" index="0" speed="13.90" length="33.60" shape="166.80,961.20 133.20,961.20"/>
        <lane id=":17_6_1" index="1" speed="13.90" length="33.60" shape="166.80,958.00 133.20,958.00"/>
        <lane id=":17_6_2" index="2" speed="13.90" length="33.60" shape="166.80,954.80 133.20,954.80"/>
    </edge>
    <edge id=":17_9" function="internal">
        <lane id=":17_9_0" index="0" speed="11.36" length="29.67" shape="166.80,951.60 158.75,950.45 153.00,947.00 149.55,941.25 148.40,933.20"/>
    </edge>
    <edge id=":17_10" function="internal">
        <lane id=":17_10_0" index="0" speed="6.51" length="9.03" shape="161.20,933.20 161.55,935.65 162.60,937.40 164.35,938.45 166.80,938.80"/>
    </edge>
    <edge id=":17_11" function="internal">
        <lane id=":17_11_0" index="0" speed="13.90" length="33.60" shape="161.20,933.20 161.20,966.80"/>
        <lane id=":17_11_1" index="1" speed="13.90" length="33.60" shape="158.00,933.20 158.00,966.80"/>
        <lane id=":17_11_2" index="2" speed="13.90" length="33.60" shape="154.80,933.20 154.80,966.80"/>
    </edge>
    <edge id=":17_14" function="internal">
        <lane id=":17_14_0" index="0" speed="11.36" length="29.67" shape="151.60,933.20 150.45,941.25 147.00,947.00 141.25,950.45 133.20,951.60"/>
    </edge>
    <edge id=":17_15" function="internal">
        <lane id=":17_15_0" index="0" speed="6.51" length="9.03" shape="133.20,938.80 135.65,938.45 137.40,937.40 138.45,935.65 138.80,933.20"/>
    </edge>
    <edge id=":17_16" function="internal">
        <lane id=":17_16_0" index="0" speed="13.90" length="33.60" shape="133.20,938.80 166.80,938.80"/>
        <lane id=":17_16_1" index="1" speed="13.90" length="33.60" shape="133.20,942.00 166.80,942.00"/>
        <lane id=":17_16_2" index="2" speed="13.90" length="33.60" shape="133.20,945.20 166.80,945.20"/>
    </edge>
    <edge id=":17_19" function="internal">
        <lane id=":17_19_0" index="0" speed="11.36" length="29.67" shape="133.20,948.40 141.25,949.55 147.00,953.00 150.45,958.75 151.60,966.80"/>
    </edge>
    <edge id=":18_0" function="internal">
        <lane id=":18_0_0" index="0" speed="6.51" length="9.03" shape="338.80,966.80 338.45,964.35 337.40,962.60 335.65,961.55 333.20,961.20"/>
    </edge>
    <edge id=":18_1" function="internal">
        <lane id=":18_1_0" index="0" speed="13.90" length="33.60" shape="338.80,966.80 338.80,933.20"/>
        <lane id=":18_1_1" index="1" speed="13.90" length="33.60" shape="342.00,966.80 342.00,933.20"/>
        <lane id=":18_1_2" index="2" speed="13.90" length="33.60" shape="345.20,966.80 345.20,933.20"/>
    </edge>
    <edge id=":18_4" function="internal">
        <lane id=":18_4_0" index="0" speed="11.36" length="29.67" shape="348.40,966.80 349.55,958.75 353.00,953.00 358.75,949.55 366.80,948.40"/>
    </edge>
    <edge id=":18_5" function="internal">
        <lane id=":18_5_0" index="0" speed="6.51" length="9.03" shape="366.80,961.20 364.35,961.55 362.60,962.60 361.55,964.35 361.20,966.80"/>
    </edge>
    <edge id=":18_6" function="internal">
        <lane id=":18_6_0" index="0" speed="13.90" length="33.60" shape="366.80,961.20 333.20,961.20"/>
        <lane id=":18_6_1" index="1" speed="13.90" length="33.60" shape="366.80,958.00 333.20,958.00"/>