<?xml version="1.0" ?>
<edges>
	<edge id="e1" from="1" to="4" numLanes="4" speed="13.9"/>
	<edge id="e2" from="4" to="1" numLanes="4" speed="13.9"/>
	<edge id="e3" from="1" to="2" numLanes="4" speed="13.9"/>
	<edge id="e4" from="2" to="1" numLanes="4" speed="13.9"/>
	<edge id="e5" from="2" to="3" numLanes="4" speed="13.9"/>
	<edge id="e6" from="3" to="2" numLanes="4" speed="13.9"/>
	<edge id="e7" from="2" to="5" numLanes="4" speed="13.9"/>
	<edge id="e8" from="5" to="2" numLanes="4" speed="13.9"/>
	<edge id="e9" from="5" to="6" numLanes="4" speed="13.9"/>
	<edge id="e10" from="6" to="5" numLanes="4" speed="13.9"/>
	<edge id="e11" from="5" to="10" numLanes="4" speed="13.9"/>
	<edge id="e12" from="10" to="5" numLanes="4" speed="13.9"/>
	<edge id="e13" from="10" to="11" numLanes="4" speed="13.9"/>
	<edge id="e14" from="11" to="10" numLanes="4" speed="13.9"/>
	<edge id="e15" from="10" to="17" numLanes="4" speed="13.9"/>
	<edge id="e16" from="17" to="10" numLanes="4" speed="13.9"/>
	<edge id="e17" from="17" to="18" numLanes="4" speed="13.9"/>
	<edge id="e18" from="18" to="17" numLanes="4" speed="13.9"/>
	<edge id="e19" from="17" to="26" numLanes="4" speed="13.9"/>
	<edge id="e20" from="26" to="17" numLanes="4" speed="13.9"/>
	<edge id="e21" from="26" to="27" numLanes="4" speed="13.9"/>
	<edge id="e22" from="27" to="26" numLanes="4" speed="13.9"/>
	<edge id="e23" from="26" to="37" numLanes="4" speed="13.9"/>
	<edge id="e24" from="37" to="26" numLanes="4" speed="13.9"/>
	<edge id="e25" from="37" to="38" numLanes="4" speed="13.9"/>
	<edge id="e26" from="38" to="37" numLanes="4" speed="13.9"/>
	<edge id="e27" from="37" to="50" numLanes="4" speed="13.9"/>
	<edge id="e28" from="50" to="37" numLanes="4" speed="13.9"/>
	<edge id="e29" from="4" to="9" numLanes="4" speed="13.9"/>
	<edge id="e30" from="9" to="4" numLanes="4" speed="13.9"/>
	<edge id="e31" from="4" to="3" numLanes="4" speed="13.9"/>
	<edge id="e32" from="3" to="4" numLanes="4" speed="13.9"/>
	<edge id="e33" from="3" to="8" numLanes="4" speed="13.9"/>
	<edge id="e34" from="8" to="3" numLanes="4" speed="13.9"/>
	<edge id="e35" from="3" to="6" numLanes="4" speed="13.9"/>
	<edge id="e36" from="6" to="3" numLanes="4" speed="13.9"/>
	<edge id="e37" from="6" to="7" numLanes="4" speed="13.9"/>
	<edge id="e38" from="7" to="6" numLanes="4" speed="13.9"/>
	<edge id="e39" from="6" to="11" numLanes="4" speed="13.9"/>
	<edge id="e40" from="11" to="6" numLanes="4" speed="13.9"/>
	<edge id="e41" from="11" to="12" numLanes="4" speed="13.9"/>
	<edge id="e42" from="12" to="11" numLanes="4" speed="13.9"/>
	<edge id="e43" from="11" to="18" numLanes="4" speed="13.9"/>
	<edge id="e44" from="18" to="11" numLanes="4" speed="13.9"/>
	<edge id="e45" from="18" to="19" numLanes="4" speed="13.9"/>
	<edge id="e46" from="19" to="18" numLanes="4" speed="13.9"/>
	<edge id="e47" from="18" to="27" numLanes="4" speed="13.9"/>
	<edge id="e48" from="27" to="18" numLanes="4" speed="13.9"/>
	<edge id="e49" from="27" to="28" numLanes="4" speed="13.9"/>
	<edge id="e50" from="28" to="27" numLanes="4" speed="13.9"/>
	<edge id="e51" from="27" to="38" numLanes="4" speed="13.9"/>
	<edge id="e52" from="38" to="27" numLanes="4" speed="13.9"/>
	<edge id="e53" from="38" to="39" numLanes="4" speed="13.9"/>
	<edge id="e54" from="39" to="38" numLanes="4" speed="13.9"/>
	<edge id="e55" from="9" to="16" numLanes="4" speed="13.9"/>
	<edge id="e56" from="16" to="9" numLanes="4" speed="13.9"/>
	<edge id="e57" from="9" to="8" numLanes="4" speed="13.9"/>
	<edge id="e58" from="8" to="9" numLanes="4" speed="13.9"/>
	<edge id="e59" from="8" to="15" numLanes="4" speed="13.9"/>
	<edge id="e60" from="15" to="8" numLanes="4" speed="13.9"/>
	<edge id="e61" from="8" to="7" numLanes="4" speed="13.9"/>
	<edge id="e62" from="7" to="8" numLanes="4" speed="13.9"/>
	<edge id="e63" from="7" to="14" numLanes="4" speed="13.9"/>
	<edge id="e64" from="14" to="7" numLanes="4" speed="13.9"/>
	<edge id="e65" from="7" to="12" numLanes="4" speed="13.9"/>
	<edge id="e66" from="12" to="7" numLanes="4" speed="13.9"/>
	<edge id="e67" from="12" to="13" numLanes="4" speed="13.9"/>
	<edge id="e68" from="13" to="12" numLanes="4" speed="13.9"/>
	<edge id="e69" from="12" to="19" numLanes="4" speed="13.9"/>
	<edge id="e70" from="19" to="12" numLanes="4" speed="13.9"/>
	<edge id="e71" from="19" to="20" numLanes="4" speed="13.9"/>
	<edge id="e72" from="20" to="19" numLanes="4" speed="13.9"/>
	<edge id="e73" from="19" to="28" numLanes="4" speed="13.9"/>
	<edge id="e74" from="28" to="19" numLanes="4" speed="13.9"/>
	<edge id="e75" from="28" to="29" numLanes="4" speed="13.9"/>
	<edge id="e76" from="29" to="28" numLanes="4" speed="13.9"/>
	<edge id="e77" from="28" to="39" numLanes="4" speed="13.9"/>
	<edge id="e78" from="39" to="28" numLanes="4" speed="13.9"/>
	<edge id="e79" from="39" to="40" numLanes="4" speed="13.9"/>
	<edge id="e80" from="40" to="39" numLanes="4" speed="13.9"/>
	<edge id="e81" from="16" to="25" numLanes="4" speed="13.9"/>
	<edge id="e82" from="25" to="16" numLanes="4" speed="13.9"/>
	<edge id="e83" from="16" to="15" numLanes="4" speed="13.9"/>
	<edge id="e84" from="15" to="16" numLanes="4" speed="13.9"/>
	<edge id="e85" from="15" to="24" numLanes="4" speed="13.9"/>
	<edge id="e86" from="24" to="15" numLanes="4" speed="13.9"/>
	<edge id="e87" from="15" to="14" numLanes="4" speed="13.9"/>
	<edge id="e88" from="14" to="15" numLanes="4" speed="13.9"/>
	<edge id="e89" from="14" to="23" numLanes="4" speed="13.9"/>
	<edge id="e90" from="23" to="14" numLanes="4" speed="13.9"/>
	<edge id="e91" from="14" to="13" numLanes="4" speed="13.9"/>
	<edge id="e92" from="13" to="14" numLanes="4" speed="13.9"/>
	<edge id="e93" from="13" to="22" numLanes="4" speed="13.9"/>
	<edge id="e94" from="22" to="13" numLanes="4" speed="13.9"/>
	<edge id="e95" from="13" to="20" numLanes="4" speed="13.9"/>
	<edge id="e96" from="20" to="13" numLanes="4" speed="13.9"/>
	<edge id="e97" from="20" to="21" numLanes="4" speed="13.9"/>
	<edge id="e98" from="21" to="20" numLanes="4" speed="13.9"/>
	<edge id="e99" from="20" to="29" numLanes="4" speed="13.9"/>
	<edge id="e100" from="29" to="20" numLanes="4" speed="13.9"/>
	<edge id="e101" from="29" to="30" numLanes="4" speed="13.9"/>
	<edge id="e102" from="30" to="29" numLanes="4" speed="13.9"/>
	<edge id="e103" from="29" to="40" numLanes="4" speed="13.9"/>
	<edge id="e104" from="40" to="29" numLanes="4" speed="13.9"/>
	<edge id="e105" from="40" to="41" numLanes="4" speed="13.9"/>
	<edge id="e106" from="41" to="40" numLanes="4" speed="13.9"/>
	<edge id="e107" from="25" to="36" numLanes="4" speed="13.9"/>
	<edge id="e108" from="36" to="25" numLanes="4" speed="13.9"/>
	<edge id="e109" from="25" to="24" numLanes="4" speed="13.9"/>
	<edge id="e110" from="24" to="25" numLanes="4" speed="13.9"/>
	<edge id="e111" from="24" to="35" numLanes="4" speed="13.9"/>
	<edge id="e112" from="35" to="24" numLanes="4" speed="13.9"/>
	<edge id="e113" from="24" to="23" numLanes="4" speed="13.9"/>
	<edge id="e114" from="23" to="24" numLanes="4" speed="13.9"/>
	<edge id="e115" from="23" to="34" numLanes="4" speed="13.9"/>
	<edge id="e116" from="34" to="23" numLanes="4" speed="13.9"/>
	<edge id="e117" from="23" to="22" numLanes="4" speed="13.9"/>
	<edge id="e118" from="22" to="23" numLanes="4" speed="13.9"/>
	<edge id="e119" from="22" to="33" numLanes="4" speed="13.9"/>
	<edge id="e120" from="33" to="22" numLanes="4" speed="13.9"/>
	<edge id="e121" from="22" to="21" numLanes="4" speed="13.9"/>
	<edge id="e122" from="21" to="22" numLanes="4" speed="13.9"/>
	<edge id="e123" from="21" to="32" numLanes="4" speed="13.9"/>
	<edge id="e124" from="32" to="21" numLanes="4" speed="13.9"/>
	<edge id="e125" from="21" to="30" numLanes="4" speed="13.9"/>
	<edge id="e126" from="30" to="21" numLanes="4" speed="13.9"/>
	<edge id="e127" from="30" to="31" numLanes="4" speed="13.9"/>
	<edge id="e128" from="31" to="30" numLanes="4" speed="13.9"/>
	<edge id="e129" from="30" to="41" numLanes="4" speed="13.9"/>
	<edge id="e130" from="41" to="30" numLanes="4" speed="13.9"/>
	<edge id="e131" from="41" to="42" numLanes="4" speed="13.9"/>
	<edge id="e132" from="42" to="41" numLanes="4" speed="13.9"/>
	<edge id="e133" from="36" to="49" numLanes="4" speed="13.9"/>
	<edge id="e134" from="49" to="36" numLanes="4" speed="13.9"/>
	<edge id="e135" from="36" to="35" numLanes="4" speed="13.9"/>
	<edge id="e136" from="35" to="36" numLanes="4" speed="13.9"/>
	<edge id="e137" from="35" to="48" numLanes="4" speed="13.9"/>
	<edge id="e138" from="48" to="35" numLanes="4" speed="13.9"/>
	<edge id="e139" from="35" to="34" numLanes="4" speed="13.9"/>
	<edge id="e140" from="34" to="35" numLanes="4" speed="13.9"/>
	<edge id="e141" from="34" to="47" numLanes="4" speed="13.9"/>
	<edge id="e142" from="47" to="34" numLanes="4" speed="13.9"/>
	<edge id="e143" from="34" to="33" numLanes="4" speed="13.9"/>
	<edge id="e144" from="33" to="34" numLanes="4" speed="13.9"/>
	<edge id="e145" from="33" to="46" numLanes="4" speed="13.9"/>
	<edge id="e146" from="46" to="33" numLanes="4" speed="13.9"/>
	<edge id="e147" from="33" to="32" numLanes="4" speed="13.9"/>
	<edge id="e148" from="32" to="33" numLanes="4" speed="13.9"/>
	<edge id="e149" from="32" to="45" numLanes="4" speed="13.9"/>
	<edge id="e150" from="45" to="32" numLanes="4" speed="13.9"/>
	<edge id="e151" from="32" to="31" numLanes="4" speed="13.9"/>
	<edge id="e152" from="31" to="32" numLanes="4" speed="13.9"/>
	<edge id="e153" from="31" to="44" numLanes="4" speed="13.9"/>
	<edge id="e154" from="44" to="31" numLanes="4" speed="13.9"/>
	<edge id="e155" from="31" to="42" numLanes="4" speed="13.9"/>
	<edge id="e156" from="42" to="31" numLanes="4" speed="13.9"/>
	<edge id="e157" from="42" to="43" numLanes="4" speed="13.9"/>
	<edge id="e158" from="43" to="42" numLanes="4" speed="13.9"/>
	<edge id="e159" from="49" to="48" numLanes="4" speed="13.9"/>
	<edge id="e160" from="48" to="49" numLanes="4" speed="13.9"/>
	<edge id="e161" from="48" to="47" numLanes="4" speed="13.9"/>
	<edge id="e162" from="47" to="48" numLanes="4" speed="13.9"/>
	<edge id="e163" from="47" to="46" numLanes="4" speed="13.9"/>
	<edge id="e164" from="46" to="47" numLanes="4" speed="13.9"/>
	<edge id="e165" from="46" to="45" numLanes="4" speed="13.9"/>
	<edge id="e166" from="45" to="46" numLanes="4" speed="13.9"/>
	<edge id="e167" from="45" to="44" numLanes="4" speed="13.9"/>
	<edge id="e168" from="44" to="45" numLanes="4" speed="13.9"/>
	<edge id="e169" from="44" to="43" numLanes="4" speed="13.9"/>
	<edge id="e170" from="43" to="44" numLanes="4" speed="13.9"/>
	<edge id="ce171" from="c51" to="1" numLanes="4" speed="13.9"/>
	<edge id="ce172" from="1" to="c51" numLanes="4" speed="13.9"/>
	<edge id="ce173" from="c52" to="2" numLanes="4" speed="13.9"/>
	<edge id="ce174" from="2" to="c52" numLanes="4" speed="13.9"/>
	<edge id="ce175" from="c53" to="5" numLanes="4" speed="13.9"/>
	<edge id="ce176" from="5" to="c53" numLanes="4" speed="13.9"/>
	<edge id="ce177" from="c54" to="10" numLanes="4" speed="13.9"/>
	<edge id="ce178" from="10" to="c54" numLanes="4" speed="13.9"/>
	<edge id="ce179" from="c55" to="17" numLanes="4" speed="13.9"/>
	<edge id="ce180" from="17" to="c55" numLanes="4" speed="13.9"/>
	<edge id="ce181" from="c56" to="26" numLanes="4" speed="13.9"/>
	<edge id="ce182" from="26" to="c56" numLanes="4" speed="13.9"/>
	<edge id="ce183" from="c57" to="37" numLanes="4" speed="13.9"/>
	<edge id="ce184" from="37" to="c57" numLanes="4" speed="13.9"/>
	<edge id="ce185" from="c58" to="50" numLanes="4" speed="13.9"/>
	<edge id="ce186" from="50" to="c58" numLanes="4" speed="13.9"/>
	<edge id="ce187" from="c59" to="1" numLanes="4" speed="13.9"/>
	<edge id="ce188" from="1" to="c59" numLanes="4" speed="13.9"/>
	<edge id="ce189" from="50" to="c62" numLanes="4" speed="13.9"/>
	<edge id="ce190" from="c62" to="50" numLanes="4" speed="13.9"/>
	<edge id="ce191" from="50" to="c60" numLanes="4" speed="13.9"/>
	<edge id="ce192" from="c60" to="50" numLanes="4" speed="13.9"/>
	<edge id="ce193" from="c61" to="4" numLanes="4" speed="13.9"/>
	<edge id="ce194" from="4" to="c61" numLanes="4" speed="13.9"/>
	<edge id="ce195" from="38" to="c64" numLanes="4" speed="13.9"/>
	<edge id="ce196" from="c64" to="38" numLanes="4" speed="13.9"/>
	<edge id="ce197" from="c65" to="9" numLanes="4" speed="13.9"/>
	<edge id="ce198" from="9" to="c65" numLanes="4" speed="13.9"/>
	<edge id="ce199" from="39" to="c66" numLanes="4" speed="13.9"/>
	<edge id="ce200" from="c66" to="39" numLanes="4" speed="13.9"/>
	<edge id="ce201" from="c67" to="16" numLanes="4" speed="13.9"/>
	<edge id="ce202" from="16" to="c67" numLanes="4" speed="13.9"/>
	<edge id="ce203" from="40" to="c68" numLanes="4" speed="13.9"/>
	<edge id="ce204" from="c68" to="40" numLanes="4" speed="13.9"/>
	<edge id="ce205" from="c69" to="25" numLanes="4" speed="13.9"/>
	<edge id="ce206" from="25" to="c69" numLanes="4" speed="13.9"/>
	<edge id="ce207" from="41" to="c70" numLanes="4" speed="13.9"/>
	<edge id="ce208" from="c70" to="41" numLanes="4" speed="13.9"/>
	<edge id="ce209" from="c71" to="36" numLanes="4" speed="13.9"/>
	<edge id="ce210" from="36" to="c71" numLanes="4" speed="13.9"/>
	<edge id="ce211" from="42" to="c72" numLanes="4" speed="13.9"/>
	<edge id="ce212" from="c72" to="42" numLanes="4" speed="13.9"/>
	<edge id="ce213" from="c73" to="49" numLanes="4" speed="13.9"/>
	<edge id="ce214" from="49" to="c73" numLanes="4" speed="13.9"/>
	<edge id="ce215" from="49" to="c75" numLanes="4" speed="13.9"/>
	<edge id="ce216" from="c75" to="49" numLanes="4" speed="13.9"/>
	<edge id="ce217" from="48" to="c76" numLanes="4" speed="13.9"/>
	<edge id="ce218" from="c76" to="48" numLanes="4" speed="13.9"/>
	<edge id="ce219" from="47" to="c77" numLanes="4" speed="13.9"/>
	<edge id="ce220" from="c77" to="47" numLanes="4" speed="13.9"/>
	<edge id="ce221" from="46" to="c78" numLanes="4" speed="13.9"/>
	<edge id="ce222" from="c78" to="46" numLanes="4" speed="13.9"/>
	<edge id="ce223" from="45" to="c79" numLanes="4" speed="13.9"/>
	<edge id="ce224" from="c79" to="45" numLanes="4" speed="13.9"/>
	<edge id="ce225" from="44" to="c80" numLanes="4" speed="13.9"/>
	<edge id="ce226" from="c80" to="44" numLanes="4" speed="13.9"/>
	<edge id="ce227" from="43" to="c81" numLanes="4" speed="13.9"/>
	<edge id="ce228" from="c81" to="43" numLanes="4" speed="13.9"/>
	<edge id="ce229" from="43" to="c74" numLanes="4" speed="13.9"/>
	<edge id="ce230" from="c74" to="43" numLanes="4" speed="13.9"/>
</edges>
