<?xml version="1.0" ?>
<connections>
	<connection from="e1" to="e29" fromLane="0" toLane="0"/>
	<connection from="e1" to="e29" fromLane="1" toLane="1"/>
	<connection from="e1" to="e29" fromLane="2" toLane="2"/>
	<connection from="e1" to="e31" fromLane="3" toLane="3"/>
	<connection from="e1" to="ce194" fromLane="0" toLane="0"/>
	<connection from="e2" to="e3" fromLane="0" toLane="0"/>
	<connection from="e2" to="ce172" fromLane="0" toLane="0"/>
	<connection from="e2" to="ce172" fromLane="1" toLane="1"/>
	<connection from="e2" to="ce172" fromLane="2" toLane="2"/>
	<connection from="e2" to="ce188" fromLane="3" toLane="3"/>
	<connection from="e3" to="e5" fromLane="0" toLane="0"/>
	<connection from="e3" to="e7" fromLane="0" toLane="0"/>
	<connection from="e3" to="e7" fromLane="1" toLane="1"/>
	<connection from="e3" to="e7" fromLane="2" toLane="2"/>
	<connection from="e3" to="ce174" fromLane="3" toLane="3"/>
	<connection from="e4" to="e1" fromLane="3" toLane="3"/>
	<connection from="e4" to="ce172" fromLane="0" toLane="0"/>
	<connection from="e4" to="ce188" fromLane="0" toLane="0"/>
	<connection from="e4" to="ce188" fromLane="1" toLane="1"/>
	<connection from="e4" to="ce188" fromLane="2" toLane="2"/>
	<connection from="e5" to="e32" fromLane="0" toLane="0"/>
	<connection from="e5" to="e33" fromLane="0" toLane="0"/>
	<connection from="e5" to="e33" fromLane="1" toLane="1"/>
	<connection from="e5" to="e33" fromLane="2" toLane="2"/>
	<connection from="e5" to="e35" fromLane="3" toLane="3"/>
	<connection from="e6" to="e4" fromLane="3" toLane="3"/>
	<connection from="e6" to="e7" fromLane="0" toLane="0"/>
	<connection from="e6" to="ce174" fromLane="0" toLane="0"/>
	<connection from="e6" to="ce174" fromLane="1" toLane="1"/>
	<connection from="e6" to="ce174" fromLane="2" toLane="2"/>
	<connection from="e7" to="e9" fromLane="0" toLane="0"/>
	<connection from="e7" to="e11" fromLane="0" toLane="0"/>
	<connection from="e7" to="e11" fromLane="1" toLane="1"/>
	<connection from="e7" to="e11" fromLane="2" toLane="2"/>
	<connection from="e7" to="ce176" fromLane="3" toLane="3"/>
	<connection from="e8" to="e4" fromLane="0" toLane="0"/>
	<connection from="e8" to="e4" fromLane="1" toLane="1"/>
	<connection from="e8" to="e4" fromLane="2" toLane="2"/>
	<connection from="e8" to="e5" fromLane="3" toLane="3"/>
	<connection from="e8" to="ce174" fromLane="0" toLane="0"/>
	<connection from="e9" to="e36" fromLane="0" toLane="0"/>
	<connection from="e9" to="e37" fromLane="0" toLane="0"/>
	<connection from="e9" to="e37" fromLane="1" toLane="1"/>
	<connection from="e9" to="e37" fromLane="2" toLane="2"/>
	<connection from="e9" to="e39" fromLane="3" toLane="3"/>
	<connection from="e10" to="e8" fromLane="3" toLane="3"/>
	<connection from="e10" to="e11" fromLane="0" toLane="0"/>
	<connection from="e10" to="ce176" fromLane="0" toLane="0"/>
	<connection from="e10" to="ce176" fromLane="1" toLane="1"/>
	<connection from="e10" to="ce176" fromLane="2" toLane="2"/>
	<connection from="e11" to="e13" fromLane="0" toLane="0"/>
	<connection from="e11" to="e15" fromLane="0" toLane="0"/>
	<connection from="e11" to="e15" fromLane="1" toLane="1"/>
	<connection from="e11" to="e15" fromLane="2" toLane="2"/>
	<connection from="e11" to="ce178" fromLane="3" toLane="3"/>
	<connection from="e12" to="e8" fromLane="0" toLane="0"/>
	<connection from="e12" to="e8" fromLane="1" toLane="1"/>
	<connection from="e12" to="e8" fromLane="2" toLane="2"/>
	<connection from="e12" to="e9" fromLane="3" toLane="3"/>
	<connection from="e12" to="ce176" fromLane="0" toLane="0"/>
	<connection from="e13" to="e40" fromLane="0" toLane="0"/>
	<connection from="e13" to="e41" fromLane="0" toLane="0"/>
	<connection from="e13" to="e41" fromLane="1" toLane="1"/>
	<connection from="e13" to="e41" fromLane="2" toLane="2"/>
	<connection from="e13" to="e43" fromLane="3" toLane="3"/>
	<connection from="e14" to="e12" fromLane="3" toLane="3"/>
	<connection from="e14" to="e15" fromLane="0" toLane="0"/>
	<connection from="e14" to="ce178" fromLane="0" toLane="0"/>
	<connection from="e14" to="ce178" fromLane="1" toLane="1"/>
	<connection from="e14" to="ce178" fromLane="2" toLane="2"/>
	<connection from="e15" to="e17" fromLane="0" toLane="0"/>
	<connection from="e15" to="e19" fromLane="0" toLane="0"/>
	<connection from="e15" to="e19" fromLane="1" toLane="1"/>
	<connection from="e15" to="e19" fromLane="2" toLane="2"/>
	<connection from="e15" to="ce180" fromLane="3" toLane="3"/>
	<connection from="e16" to="e12" fromLane="0" toLane="0"/>
	<connection from="e16" to="e12" fromLane="1" toLane="1"/>
	<connection from="e16" to="e12" fromLane="2" toLane="2"/>
	<connection from="e16" to="e13" fromLane="3" toLane="3"/>
	<connection from="e16" to="ce178" fromLane="0" toLane="0"/>
	<connection from="e17" to="e44" fromLane="0" toLane="0"/>
	<connection from="e17" to="e45" fromLane="0" toLane="0"/>
	<connection from="e17" to="e45" fromLane="1" toLane="1"/>
	<connection from="e17" to="e45" fromLane="2" toLane="2"/>
	<connection from="e17" to="e47" fromLane="3" toLane="3"/>
	<connection from="e18" to="e16" fromLane="3" toLane="3"/>
	<connection from="e18" to="e19" fromLane="0" toLane="0"/>
	<connection from="e18" to="ce180" fromLane="0" toLane="0"/>
	<connection from="e18" to="ce180" fromLane="1" toLane="1"/>
	<connection from="e18" to="ce180" fromLane="2" toLane="2"/>
	<connection from="e19" to="e21" fromLane="0" toLane="0"/>
	<connection from="e19" to="e23" fromLane="0" toLane="0"/>
	<connection from="e19" to="e23" fromLane="1" toLane="1"/>
	<connection from="e19" to="e23" fromLane="2" toLane="2"/>
	<connection from="e19" to="ce182" fromLane="3" toLane="3"/>
	<connection from="e20" to="e16" fromLane="0" toLane="0"/>
	<connection from="e20" to="e16" fromLane="1" toLane="1"/>
	<connection from="e20" to="e16" fromLane="2" toLane="2"/>
	<connection from="e20" to="e17" fromLane="3" toLane="3"/>
	<connection from="e20" to="ce180" fromLane="0" toLane="0"/>
	<connection from="e21" to="e48" fromLane="0" toLane="0"/>
	<connection from="e21" to="e49" fromLane="0" toLane="0"/>
	<connection from="e21" to="e49" fromLane="1" toLane="1"/>
	<connection from="e21" to="e49" fromLane="2" toLane="2"/>
	<connection from="e21" to="e51" fromLane="3" toLane="3"/>
	<connection from="e22" to="e20" fromLane="3" toLane="3"/>
	<connection from="e22" to="e23" fromLane="0" toLane="0"/>
	<connection from="e22" to="ce182" fromLane="0" toLane="0"/>
	<connection from="e22" to="ce182" fromLane="1" toLane="1"/>
	<connection from="e22" to="ce182" fromLane="2" toLane="2"/>
	<connection from="e23" to="e25" fromLane="0" toLane="0"/>
	<connection from="e23" to="e27" fromLane="0" toLane="0"/>
	<connection from="e23" to="e27" fromLane="1" toLane="1"/>
	<connection from="e23" to="e27" fromLane="2" toLane="2"/>
	<connection from="e23" to="ce184" fromLane="3" toLane="3"/>
	<connection from="e24" to="e20" fromLane="0" toLane="0"/>
	<connection from="e24" to="e20" fromLane="1" toLane="1"/>
	<connection from="e24" to="e20" fromLane="2" toLane="2"/>
	<connection from="e24" to="e21" fromLane="3" toLane="3"/>
	<connection from="e24" to="ce182" fromLane="0" toLane="0"/>
	<connection from="e25" to="e52" fromLane="0" toLane="0"/>
	<connection from="e25" to="e53" fromLane="0" toLane="0"/>
	<connection from="e25" to="e53" fromLane="1" toLane="1"/>
	<connection from="e25" to="e53" fromLane="2" toLane="2"/>
	<connection from="e25" to="ce195" fromLane="3" toLane="3"/>
	<connection from="e26" to="e24" fromLane="3" toLane="3"/>
	<connection from="e26" to="e27" fromLane="0" toLane="0"/>
	<connection from="e26" to="ce184" fromLane="0" toLane="0"/>
	<connection from="e26" to="ce184" fromLane="1" toLane="1"/>
	<connection from="e26" to="ce184" fromLane="2" toLane="2"/>
	<connection from="e27" to="ce186" fromLane="3" toLane="3"/>
	<connection from="e27" to="ce189" fromLane="0" toLane="0"/>
	<connection from="e27" to="ce191" fromLane="0" toLane="0"/>
	<connection from="e27" to="ce191" fromLane="1" toLane="1"/>
	<connection from="e27" to="ce191" fromLane="2" toLane="2"/>
	<connection from="e28" to="e24" fromLane="0" toLane="0"/>
	<connection from="e28" to="e24" fromLane="1" toLane="1"/>
	<connection from="e28" to="e24" fromLane="2" toLane="2"/>
	<connection from="e28" to="e25" fromLane="3" toLane="3"/>
	<connection from="e28" to="ce184" fromLane="0" toLane="0"/>
	<connection from="e29" to="e55" fromLane="0" toLane="0"/>
	<connection from="e29" to="e55" fromLane="1" toLane="1"/>
	<connection from="e29" to="e55" fromLane="2" toLane="2"/>
	<connection from="e29" to="e57" fromLane="3" toLane="3"/>
	<connection from="e29" to="ce198" fromLane="0" toLane="0"/>
	<connection from="e30" to="e2" fromLane="0" toLane="0"/>
	<connection from="e30" to="e2" fromLane="1" toLane="1"/>
	<connection from="e30" to="e2" fromLane="2" toLane="2"/>
	<connection from="e30" to="e31" fromLane="0" toLane="0"/>
	<connection from="e30" to="ce194" fromLane="3" toLane="3"/>
	<connection from="e31" to="e6" fromLane="3" toLane="3"/>
	<connection from="e31" to="e33" fromLane="0" toLane="0"/>
	<connection from="e31" to="e35" fromLane="0" toLane="0"/>
	<connection from="e31" to="e35" fromLane="1" toLane="1"/>
	<connection from="e31" to="e35" fromLane="2" toLane="2"/>
	<connection from="e32" to="e2" fromLane="0" toLane="0"/>
	<connection from="e32" to="e29" fromLane="3" toLane="3"/>
	<connection from="e32" to="ce194" fromLane="0" toLane="0"/>
	<connection from="e32" to="ce194" fromLane="1" toLane="1"/>
	<connection from="e32" to="ce194" fromLane="2" toLane="2"/>
	<connection from="e33" to="e58" fromLane="0" toLane="0"/>
	<connection from="e33" to="e59" fromLane="0" toLane="0"/>
	<connection from="e33" to="e59" fromLane="1" toLane="1"/>
	<connection from="e33" to="e59" fromLane="2" toLane="2"/>
	<connection from="e33" to="e61" fromLane="3" toLane="3"/>
	<connection from="e34" to="e6" fromLane="0" toLane="0"/>
	<connection from="e34" to="e6" fromLane="1" toLane="1"/>
	<connection from="e34" to="e6" fromLane="2" toLane="2"/>
	<connection from="e34" to="e32" fromLane="3" toLane="3"/>
	<connection from="e34" to="e35" fromLane="0" toLane="0"/>
	<connection from="e35" to="e10" fromLane="3" toLane="3"/>
	<connection from="e35" to="e37" fromLane="0" toLane="0"/>
	<connection from="e35" to="e39" fromLane="0" toLane="0"/>
	<connection from="e35" to="e39" fromLane="1" toLane="1"/>
	<connection from="e35" to="e39" fromLane="2" toLane="2"/>
	<connection from="e36" to="e6" fromLane="0" toLane="0"/>
	<connection from="e36" to="e32" fromLane="0" toLane="0"/>
	<connection from="e36" to="e32" fromLane="1" toLane="1"/>
	<connection from="e36" to="e32" fromLane="2" toLane="2"/>
	<connection from="e36" to="e33" fromLane="3" toLane="3"/>
	<connection from="e37" to="e62" fromLane="0" toLane="0"/>
	<connection from="e37" to="e63" fromLane="0" toLane="0"/>
	<connection from="e37" to="e63" fromLane="1" toLane="1"/>
	<connection from="e37" to="e63" fromLane="2" toLane="2"/>
	<connection from="e37" to="e65" fromLane="3" toLane="3"/>
	<connection from="e38" to="e10" fromLane="0" toLane="0"/>
	<connection from="e38" to="e10" fromLane="1" toLane="1"/>
	<connection from="e38" to="e10" fromLane="2" toLane="2"/>
	<connection from="e38" to="e36" fromLane="3" toLane="3"/>
	<connection from="e38" to="e39" fromLane="0" toLane="0"/>
	<connection from="e39" to="e14" fromLane="3" toLane="3"/>
	<connection from="e39" to="e41" fromLane="0" toLane="0"/>
	<connection from="e39" to="e43" fromLane="0" toLane="0"/>
	<connection from="e39" to="e43" fromLane="1" toLane="1"/>
	<connection from="e39" to="e43" fromLane="2" toLane="2"/>
	<connection from="e40" to="e10" fromLane="0" toLane="0"/>
	<connection from="e40" to="e36" fromLane="0" toLane="0"/>
	<connection from="e40" to="e36" fromLane="1" toLane="1"/>
	<connection from="e40" to="e36" fromLane="2" toLane="2"/>
	<connection from="e40" to="e37" fromLane="3" toLane="3"/>
	<connection from="e41" to="e66" fromLane="0" toLane="0"/>
	<connection from="e41" to="e67" fromLane="0" toLane="0"/>
	<connection from="e41" to="e67" fromLane="1" toLane="1"/>
	<connection from="e41" to="e67" fromLane="2" toLane="2"/>
	<connection from="e41" to="e69" fromLane="3" toLane="3"/>
	<connection from="e42" to="e14" fromLane="0" toLane="0"/>
	<connection from="e42" to="e14" fromLane="1" toLane="1"/>
	<connection from="e42" to="e14" fromLane="2" toLane="2"/>
	<connection from="e42" to="e40" fromLane="3" toLane="3"/>
	<connection from="e42" to="e43" fromLane="0" toLane="0"/>
	<connection from="e43" to="e18" fromLane="3" toLane="3"/>
	<connection from="e43" to="e45" fromLane="0" toLane="0"/>
	<connection from="e43" to="e47" fromLane="0" toLane="0"/>
	<connection from="e43" to="e47" fromLane="1" toLane="1"/>
	<connection from="e43" to="e47" fromLane="2" toLane="2"/>
	<connection from="e44" to="e14" fromLane="0" toLane="0"/>
	<connection from="e44" to="e40" fromLane="0" toLane="0"/>
	<connection from="e44" to="e40" fromLane="1" toLane="1"/>
	<connection from="e44" to="e40" fromLane="2" toLane="2"/>
	<connection from="e44" to="e41" fromLane="3" toLane="3"/>
	<connection from="e45" to="e70" fromLane="0" toLane="0"/>
	<connection from="e45" to="e71" fromLane="0" toLane="0"/>
	<connection from="e45" to="e71" fromLane="1" toLane="1"/>
	<connection from="e45" to="e71" fromLane="2" toLane="2"/>
	<connection from="e45" to="e73" fromLane="3" toLane="3"/>
	<connection from="e46" to="e18" fromLane="0" toLane="0"/>
	<connection from="e46" to="e18" fromLane="1" toLane="1"/>
	<connection from="e46" to="e18" fromLane="2" toLane="2"/>
	<connection from="e46" to="e44" fromLane="3" toLane="3"/>
	<connection from="e46" to="e47" fromLane="0" toLane="0"/>
	<connection from="e47" to="e22" fromLane="3" toLane="3"/>
	<connection from="e47" to="e49" fromLane="0" toLane="0"/>
	<connection from="e47" to="e51" fromLane="0" toLane="0"/>
	<connection from="e47" to="e51" fromLane="1" toLane="1"/>
	<connection from="e47" to="e51" fromLane="2" toLane="2"/>
	<connection from="e48" to="e18" fromLane="0" toLane="0"/>
	<connection from="e48" to="e44" fromLane="0" toLane="0"/>
	<connection from="e48" to="e44" fromLane="1" toLane="1"/>
	<connection from="e48" to="e44" fromLane="2" toLane="2"/>
	<connection from="e48" to="e45" fromLane="3" toLane="3"/>
	<connection from="e49" to="e74" fromLane="0" toLane="0"/>
	<connection from="e49" to="e75" fromLane="0" toLane="0"/>
	<connection from="e49" to="e75" fromLane="1" toLane="1"/>
	<connection from="e49" to="e75" fromLane="2" toLane="2"/>
	<connection from="e49" to="e77" fromLane="3" toLane="3"/>
	<connection from="e50" to="e22" fromLane="0" toLane="0"/>
	<connection from="e50" to="e22" fromLane="1" toLane="1"/>
	<connection from="e50" to="e22" fromLane="2" toLane="2"/>
	<connection from="e50" to="e48" fromLane="3" toLane="3"/>
	<connection from="e50" to="e51" fromLane="0" toLane="0"/>
	<connection from="e51" to="e26" fromLane="3" toLane="3"/>
	<connection from="e51" to="e53" fromLane="0" toLane="0"/>
	<connection from="e51" to="ce195" fromLane="0" toLane="0"/>
	<connection from="e51" to="ce195" fromLane="1" toLane="1"/>
	<connection from="e51" to="ce195" fromLane="2" toLane="2"/>
	<connection from="e52" to="e22" fromLane="0" toLane="0"/>
	<connection from="e52" to="e48" fromLane="0" toLane="0"/>
	<connection from="e52" to="e48" fromLane="1" toLane="1"/>
	<connection from="e52" to="e48" fromLane="2" toLane="2"/>
	<connection from="e52" to="e49" fromLane="3" toLane="3"/>
	<connection from="e53" to="e78" fromLane="0" toLane="0"/>
	<connection from="e53" to="e79" fromLane="0" toLane="0"/>
	<connection from="e53" to="e79" fromLane="1" toLane="1"/>
	<connection from="e53" to="e79" fromLane="2" toLane="2"/>
	<connection from="e53" to="ce199" fromLane="3" toLane="3"/>
	<connection from="e54" to="e26" fromLane="0" toLane="0"/>
	<connection from="e54" to="e26" fromLane="1" toLane="1"/>
	<connection from="e54" to="e26" fromLane="2" toLane="2"/>
	<connection from="e54" to="e52" fromLane="3" toLane="3"/>
	<connection from="e54" to="ce195" fromLane="0" toLane="0"/>
	<connection from="e55" to="e81" fromLane="0" toLane="0"/>
	<connection from="e55" to="e81" fromLane="1" toLane="1"/>
	<connection from="e55" to="e81" fromLane="2" toLane="2"/>
	<connection from="e55" to="e83" fromLane="3" toLane="3"/>
	<connection from="e55" to="ce202" fromLane="0" toLane="0"/>
	<connection from="e56" to="e30" fromLane="0" toLane="0"/>
	<connection from="e56" to="e30" fromLane="1" toLane="1"/>
	<connection from="e56" to="e30" fromLane="2" toLane="2"/>
	<connection from="e56" to="e57" fromLane="0" toLane="0"/>
	<connection from="e56" to="ce198" fromLane="3" toLane="3"/>
	<connection from="e57" to="e34" fromLane="3" toLane="3"/>
	<connection from="e57" to="e59" fromLane="0" toLane="0"/>
	<connection from="e57" to="e61" fromLane="0" toLane="0"/>
	<connection from="e57" to="e61" fromLane="1" toLane="1"/>
	<connection from="e57" to="e61" fromLane="2" toLane="2"/>
	<connection from="e58" to="e30" fromLane="0" toLane="0"/>
	<connection from="e58" to="e55" fromLane="3" toLane="3"/>
	<connection from="e58" to="ce198" fromLane="0" toLane="0"/>
	<connection from="e58" to="ce198" fromLane="1" toLane="1"/>
	<connection from="e58" to="ce198" fromLane="2" toLane="2"/>
	<connection from="e59" to="e84" fromLane="0" toLane="0"/>
	<connection from="e59" to="e85" fromLane="0" toLane="0"/>
	<connection from="e59" to="e85" fromLane="1" toLane="1"/>
	<connection from="e59" to="e85" fromLane="2" toLane="2"/>
	<connection from="e59" to="e87" fromLane="3" toLane="3"/>
	<connection from="e60" to="e34" fromLane="0" toLane="0"/>
	<connection from="e60" to="e34" fromLane="1" toLane="1"/>
	<connection from="e60" to="e34" fromLane="2" toLane="2"/>
	<connection from="e60" to="e58" fromLane="3" toLane="3"/>
	<connection from="e60" to="e61" fromLane="0" toLane="0"/>
	<connection from="e61" to="e38" fromLane="3" toLane="3"/>
	<connection from="e61" to="e63" fromLane="0" toLane="0"/>
	<connection from="e61" to="e65" fromLane="0" toLane="0"/>
	<connection from="e61" to="e65" fromLane="1" toLane="1"/>
	<connection from="e61" to="e65" fromLane="2" toLane="2"/>
	<connection from="e62" to="e34" fromLane="0" toLane="0"/>
	<connection from="e62" to="e58" fromLane="0" toLane="0"/>
	<connection from="e62" to="e58" fromLane="1" toLane="1"/>
	<connection from="e62" to="e58" fromLane="2" toLane="2"/>
	<connection from="e62" to="e59" fromLane="3" toLane="3"/>
	<connection from="e63" to="e88" fromLane="0" toLane="0"/>
	<connection from="e63" to="e89" fromLane="0" toLane="0"/>
	<connection from="e63" to="e89" fromLane="1" toLane="1"/>
	<connection from="e63" to="e89" fromLane="2" toLane="2"/>
	<connection from="e63" to="e91" fromLane="3" toLane="3"/>
	<connection from="e64" to="e38" fromLane="0" toLane="0"/>
	<connection from="e64" to="e38" fromLane="1" toLane="1"/>
	<connection from="e64" to="e38" fromLane="2" toLane="2"/>
	<connection from="e64" to="e62" fromLane="3" toLane="3"/>
	<connection from="e64" to="e65" fromLane="0" toLane="0"/>
	<connection from="e65" to="e42" fromLane="3" toLane="3"/>
	<connection from="e65" to="e67" fromLane="0" toLane="0"/>
	<connection from="e65" to="e69" fromLane="0" toLane="0"/>
	<connection from="e65" to="e69" fromLane="1" toLane="1"/>
	<connection from="e65" to="e69" fromLane="2" toLane="2"/>
	<connection from="e66" to="e38" fromLane="0" toLane="0"/>
	<connection from="e66" to="e62" fromLane="0" toLane="0"/>
	<connection from="e66" to="e62" fromLane="1" toLane="1"/>
	<connection from="e66" to="e62" fromLane="2" toLane="2"/>
	<connection from="e66" to="e63" fromLane="3" toLane="3"/>
	<connection from="e67" to="e92" fromLane="0" toLane="0"/>
	<connection from="e67" to="e93" fromLane="0" toLane="0"/>
	<connection from="e67" to="e93" fromLane="1" toLane="1"/>
	<connection from="e67" to="e93" fromLane="2" toLane="2"/>
	<connection from="e67" to="e95" fromLane="3" toLane="3"/>
	<connection from="e68" to="e42" fromLane="0" toLane="0"/>
	<connection from="e68" to="e42" fromLane="1" toLane="1"/>
	<connection from="e68" to="e42" fromLane="2" toLane="2"/>
	<connection from="e68" to="e66" fromLane="3" toLane="3"/>
	<connection from="e68" to="e69" fromLane="0" toLane="0"/>
	<connection from="e69" to="e46" fromLane="3" toLane="3"/>
	<connection from="e69" to="e71" fromLane="0" toLane="0"/>
	<connection from="e69" to="e73" fromLane="0" toLane="0"/>
	<connection from="e69" to="e73" fromLane="1" toLane="1"/>
	<connection from="e69" to="e73" fromLane="2" toLane="2"/>
	<connection from="e70" to="e42" fromLane="0" toLane="0"/>
	<connection from="e70" to="e66" fromLane="0" toLane="0"/>
	<connection from="e70" to="e66" fromLane="1" toLane="1"/>
	<connection from="e70" to="e66" fromLane="2" toLane="2"/>
	<connection from="e70" to="e67" fromLane="3" toLane="3"/>
	<connection from="e71" to="e96" fromLane="0" toLane="0"/>
	<connection from="e71" to="e97" fromLane="0" toLane="0"/>
	<connection from="e71" to="e97" fromLane="1" toLane="1"/>
	<connection from="e71" to="e97" fromLane="2" toLane="2"/>
	<connection from="e71" to="e99" fromLane="3" toLane="3"/>
	<connection from="e72" to="e46" fromLane="0" toLane="0"/>
	<connection from="e72" to="e46" fromLane="1" toLane="1"/>
	<connection from="e72" to="e46" fromLane="2" toLane="2"/>
	<connection from="e72" to="e70" fromLane="3" toLane="3"/>
	<connection from="e72" to="e73" fromLane="0" toLane="0"/>
	<connection from="e73" to="e50" fromLane="3" toLane="3"/>
	<connection from="e73" to="e75" fromLane="0" toLane="0"/>
	<connection from="e73" to="e77" fromLane="0" toLane="0"/>
	<connection from="e73" to="e77" fromLane="1" toLane="1"/>
	<connection from="e73" to="e77" fromLane="2" toLane="2"/>
	<connection from="e74" to="e46" fromLane="0" toLane="0"/>
	<connection from="e74" to="e70" fromLane="0" toLane="0"/>
	<connection from="e74" to="e70" fromLane="1" toLane="1"/>
	<connection from="e74" to="e70" fromLane="2" toLane="2"/>
	<connection from="e74" to="e71" fromLane="3" toLane="3"/>
	<connection from="e75" to="e100" fromLane="0" toLane="0"/>
	<connection from="e75" to="e101" fromLane="0" toLane="0"/>
	<connection from="e75" to="e101" fromLane="1" toLane="1"/>
	<connection from="e75" to="e101" fromLane="2" toLane="2"/>
	<connection from="e75" to="e103" fromLane="3" toLane="3"/>
	<connection from="e76" to="e50" fromLane="0" toLane="0"/>
	<connection from="e76" to="e50" fromLane="1" toLane="1"/>
	<connection from="e76" to="e50" fromLane="2" toLane="2"/>
	<connection from="e76" to="e74" fromLane="3" toLane="3"/>
	<connection from="e76" to="e77" fromLane="0" toLane="0"/>
	<connection from="e77" to="e54" fromLane="3" toLane="3"/>
	<connection from="e77" to="e79" fromLane="0" toLane="0"/>
	<connection from="e77" to="ce199" fromLane="0" toLane="0"/>
	<connection from="e77" to="ce199" fromLane="1" toLane="1"/>
	<connection from="e77" to="ce199" fromLane="2" toLane="2"/>
	<connection from="e78" to="e50" fromLane="0" toLane="0"/>
	<connection from="e78" to="e74" fromLane="0" toLane="0"/>
	<connection from="e78" to="e74" fromLane="1" toLane="1"/>
	<connection from="e78" to="e74" fromLane="2" toLane="2"/>
	<connection from="e78" to="e75" fromLane="3" toLane="3"/>
	<connection from="e79" to="e104" fromLane="0" toLane="0"/>
	<connection from="e79" to="e105" fromLane="0" toLane="0"/>
	<connection from="e79" to="e105" fromLane="1" toLane="1"/>
	<connection from="e79" to="e105" fromLane="2" toLane="2"/>
	<connection from="e79" to="ce203" fromLane="3" toLane="3"/>
	<connection from="e80" to="e54" fromLane="0" toLane="0"/>
	<connection from="e80" to="e54" fromLane="1" toLane="1"/>
	<connection from="e80" to="e54" fromLane="2" toLane="2"/>
	<connection from="e80" to="e78" fromLane="3" toLane="3"/>
	<connection from="e80" to="ce199" fromLane="0" toLane="0"/>
	<connection from="e81" to="e107" fromLane="0" toLane="0"/>
	<connection from="e81" to="e107" fromLane="1" toLane="1"/>
	<connection from="e81" to="e107" fromLane="2" toLane="2"/>
	<connection from="e81" to="e109" fromLane="3" toLane="3"/>
	<connection from="e81" to="ce206" fromLane="0" toLane="0"/>
	<connection from="e82" to="e56" fromLane="0" toLane="0"/>
	<connection from="e82" to="e56" fromLane="1" toLane="1"/>
	<connection from="e82" to="e56" fromLane="2" toLane="2"/>
	<connection from="e82" to="e83" fromLane="0" toLane="0"/>
	<connection from="e82" to="ce202" fromLane="3" toLane="3"/>
	<connection from="e83" to="e60" fromLane="3" toLane="3"/>
	<connection from="e83" to="e85" fromLane="0" toLane="0"/>
	<connection from="e83" to="e87" fromLane="0" toLane="0"/>
	<connection from="e83" to="e87" fromLane="1" toLane="1"/>
	<connection from="e83" to="e87" fromLane="2" toLane="2"/>
	<connection from="e84" to="e56" fromLane="0" toLane="0"/>
	<connection from="e84" to="e81" fromLane="3" toLane="3"/>
	<connection from="e84" to="ce202" fromLane="0" toLane="0"/>
	<connection from="e84" to="ce202" fromLane="1" toLane="1"/>
	<connection from="e84" to="ce202" fromLane="2" toLane="2"/>
	<connection from="e85" to="e110" fromLane="0" toLane="0"/>
	<connection from="e85" to="e111" fromLane="0" toLane="0"/>
	<connection from="e85" to="e111" fromLane="1" toLane="1"/>
	<connection from="e85" to="e111" fromLane="2" toLane="2"/>
	<connection from="e85" to="e113" fromLane="3" toLane="3"/>
	<connection from="e86" to="e60" fromLane="0" toLane="0"/>
	<connection from="e86" to="e60" fromLane="1" toLane="1"/>
	<connection from="e86" to="e60" fromLane="2" toLane="2"/>
	<connection from="e86" to="e84" fromLane="3" toLane="3"/>
	<connection from="e86" to="e87" fromLane="0" toLane="0"/>
	<connection from="e87" to="e64" fromLane="3" toLane="3"/>
	<connection from="e87" to="e89" fromLane="0" toLane="0"/>
	<connection from="e87" to="e91" fromLane="0" toLane="0"/>
	<connection from="e87" to="e91" fromLane="1" toLane="1"/>
	<connection from="e87" to="e91" fromLane="2" toLane="2"/>
	<connection from="e88" to="e60" fromLane="0" toLane="0"/>
	<connection from="e88" to="e84" fromLane="0" toLane="0"/>
	<connection from="e88" to="e84" fromLane="1" toLane="1"/>
	<connection from="e88" to="e84" fromLane="2" toLane="2"/>
	<connection from="e88" to="e85" fromLane="3" toLane="3"/>
	<connection from="e89" to="e114" fromLane="0" toLane="0"/>
	<connection from="e89" to="e115" fromLane="0" toLane="0"/>
	<connection from="e89" to="e115" fromLane="1" toLane="1"/>
	<connection from="e89" to="e115" fromLane="2" toLane="2"/>
	<connection from="e89" to="e117" fromLane="3" toLane="3"/>
	<connection from="e90" to="e64" fromLane="0" toLane="0"/>
	<connection from="e90" to="e64" fromLane="1" toLane="1"/>
	<connection from="e90" to="e64" fromLane="2" toLane="2"/>
	<connection from="e90" to="e88" fromLane="3" toLane="3"/>
	<connection from="e90" to="e91" fromLane="0" toLane="0"/>
	<connection from="e91" to="e68" fromLane="3" toLane="3"/>
	<connection from="e91" to="e93" fromLane="0" toLane="0"/>
	<connection from="e91" to="e95" fromLane="0" toLane="0"/>
	<connection from="e91" to="e95" fromLane="1" toLane="1"/>
	<connection from="e91" to="e95" fromLane="2" toLane="2"/>
	<connection from="e92" to="e64" fromLane="0" toLane="0"/>
	<connection from="e92" to="e88" fromLane="0" toLane="0"/>
	<connection from="e92" to="e88" fromLane="1" toLane="1"/>
	<connection from="e92" to="e88" fromLane="2" toLane="2"/>
	<connection from="e92" to="e89" fromLane="3" toLane="3"/>
	<connection from="e93" to="e118" fromLane="0" toLane="0"/>
	<connection from="e93" to="e119" fromLane="0" toLane="0"/>
	<connection from="e93" to="e119" fromLane="1" toLane="1"/>
	<connection from="e93" to="e119" fromLane="2" toLane="2"/>
	<connection from="e93" to="e121" fromLane="3" toLane="3"/>
	<connection from="e94" to="e68" fromLane="0" toLane="0"/>
	<connection from="e94" to="e68" fromLane="1" toLane="1"/>
	<connection from="e94" to="e68" fromLane="2" toLane="2"/>
	<connection from="e94" to="e92" fromLane="3" toLane="3"/>
	<connection from="e94" to="e95" fromLane="0" toLane="0"/>
	<connection from="e95" to="e72" fromLane="3" toLane="3"/>
	<connection from="e95" to="e97" fromLane="0" toLane="0"/>
	<connection from="e95" to="e99" fromLane="0" toLane="0"/>
	<connection from="e95" to="e99" fromLane="1" toLane="1"/>
	<connection from="e95" to="e99" fromLane="2" toLane="2"/>
	<connection from="e96" to="e68" fromLane="0" toLane="0"/>
	<connection from="e96" to="e92" fromLane="0" toLane="0"/>
	<connection from="e96" to="e92" fromLane="1" toLane="1"/>
	<connection from="e96" to="e92" fromLane="2" toLane="2"/>
	<connection from="e96" to="e93" fromLane="3" toLane="3"/>
	<connection from="e97" to="e122" fromLane="0" toLane="0"/>
	<connection from="e97" to="e123" fromLane="0" toLane="0"/>
	<connection from="e97" to="e123" fromLane="1" toLane="1"/>
	<connection from="e97" to="e123" fromLane="2" toLane="2"/>
	<connection from="e97" to="e125" fromLane="3" toLane="3"/>
	<connection from="e98" to="e72" fromLane="0" toLane="0"/>
	<connection from="e98" to="e72" fromLane="1" toLane="1"/>
	<connection from="e98" to="e72" fromLane="2" toLane="2"/>
	<connection from="e98" to="e96" fromLane="3" toLane="3"/>
	<connection from="e98" to="e99" fromLane="0" toLane="0"/>
	<connection from="e99" to="e76" fromLane="3" toLane="3"/>
	<connection from="e99" to="e101" fromLane="0" toLane="0"/>
	<connection from="e99" to="e103" fromLane="0" toLane="0"/>
	<connection from="e99" to="e103" fromLane="1" toLane="1"/>
	<connection from="e99" to="e103" fromLane="2" toLane="2"/>
	<connection from="e100" to="e72" fromLane="0" toLane="0"/>
	<connection from="e100" to="e96" fromLane="0" toLane="0"/>
	<connection from="e100" to="e96" fromLane="1" toLane="1"/>
	<connection from="e100" to="e96" fromLane="2" toLane="2"/>
	<connection from="e100" to="e97" fromLane="3" toLane="3"/>
	<connection from="e101" to="e126" fromLane="0" toLane="0"/>
	<connection from="e101" to="e127" fromLane="0" toLane="0"/>
	<connection from="e101" to="e127" fromLane="1" toLane="1"/>
	<connection from="e101" to="e127" fromLane="2" toLane="2"/>
	<connection from="e101" to="e129" fromLane="3" toLane="3"/>