<routes>
             <vType accel="1.0" decel="4.5" id="standard_car" length="5.0" minGap="2.5" maxSpeed="25" sigma="0.5" />
                    
    <trip id="0" depart="6.0" from="ce8" to="ce2" type="standard_car" departLane="random" departSpeed="10" />
    <trip id="1" depart="13.0" from="ce6" to="ce4" type="standard_car" departLane="random" departSpeed="10" />
    <trip id="2" depart="14.0" from="ce3" to="ce2" type="standard_car" departLane="random" departSpeed="10" />
    <trip id="3" depart="16.0" from="ce8" to="ce7" type="standard_car" departLane="random" departSpeed="10" />
    <trip id="4" depart="23.0" from="ce8" to="ce2" type="standard_car" departLane="random" departSpeed="10" />
    <trip id="5" depart="26.0" from="ce8" to="ce5" type="standard_car" departLane="random" departSpeed="10" />
    <trip id="6" depart="28.0" from="ce8" to="ce4" type="standard_car" departLane="random" departSpeed="10" />
    <trip id="7" depart="44.0" from="ce1" to="ce5" type="standard_car" departLane="random" departSpeed="10" />
    <trip id="8" depart="55.0" from="ce3" to="ce5" type="standard_car" departLane="random" departSpeed="10" />
    <trip id="9" depart="59.0" from="ce8" to="ce7" type="standard_car" departLane="random" departSpeed="10" />
    <trip id="10" depart="63.0" from="ce8" to="ce7" type="standard_car" departLane="random" departSpeed="10" />
    <trip id="11" depart="69.0" from="ce8" to="ce4" type="standard_car" departLane="random" departSpeed="10" />
    <trip id="12" depart="74.0" from="ce8" to="ce7" type="standard_car" departLane="random" departSpeed="10" />
    <trip id="13" depart="77.0" from="ce3" to="ce7" type="standard_car" departLane="random" departSpeed="10" />
    <trip id="14" depart="79.0" from="ce8" to="ce5" type="standard_car" departLane="random" departSpeed="10" />
    <trip id="15" depart="88.0" from="ce8" to="ce2" type="standard_car" departLane="random" departSpeed="10" />
    <trip id="16" depart="89.0" from="ce8" to="ce5" type="standard_car" departLane="random" departSpeed="10" />
    <trip id="17" depart="107.0" from="ce8" to="ce7" type="standard_car" departLane="random" departSpeed="10" />
    <trip id="18" depart="110.0" from="ce3" to="ce5" type="standard_car" departLane="random" departSpeed="10" />
    <trip id="19" depart="110.0" from="ce6" to="ce7" type="standard_car" departLane="random" departSpeed="10" />
    <trip id="20" depart="124.0" from="ce1" to="ce5" type="standard_car" departLane="random" departSpeed="10" />
    <trip id="21" depart="124.0" from="ce8" to="ce2" type="standard_car" departLane="random" departSpeed="10" />
    <trip id="22" depart="125.0" from="ce1" to="ce7" type="standard_car" departLane="random" departSpeed="10" />
    <trip id="23" depart="135.0" from="ce8" to="ce5" type="standard_car" departLane="random" departSpeed="10" />
    <trip id="24" depart="141.0" from="ce8" to="ce5" type="standard_car" departLane="random" departSpeed="10" />
    <trip id="25" depart="149.0" from="ce8" to="ce2" type="standard_car" departLane="random" departSpeed="10" />
    <trip id="26" depart="149.0" from="ce8" to="ce2" type="standard_car" departLane="random" departSpeed="10" />
    <trip id="27" depart="150.0" from="ce1" to="ce5" type="standard_car" departLane="random" departSpeed="10" />
    <trip id="28" depart="159.0" from="ce1" to="ce7" type="standard_car" departLane="random" departSpeed="10" />
    <trip id="29" depart="182.0" from="ce1" to="ce5" type="standard_car" departLane="random" departSpeed="10" />
    <trip id="30" depart="189.0" from="ce3" to="ce5" type="standard_car" departLane="random" departSpeed="10" />
    <trip id="31" depart="191.0" from="ce8" to="ce4" type="standard_car" departLane="random" departSpeed="10" />
    <trip id="32" depart="191.0" from="ce1" to="ce5" type="standard_car" departLane="random" departSpeed="10" />
    <trip id="33" depart="194.0" from="ce8" to="ce7" type="standard_car" departLane="random" departSpeed="10" />
    <trip id="34" depart="215.0" from="ce8" to="ce5" type="standard_car" departLane="random" departSpeed="10" />
    <trip id="35" depart="215.0" from="ce6" to="ce4" type="standard_car" departLane="random" departSpeed="10" />
    <trip id="36" depart="219.0" from="ce1" to="ce2" type="standard_car" departLane="random" departSpeed="10" />
    <trip id="37" depart="221.0" from="ce8" to="ce5" type="standard_car" departLane="random" departSpeed="10" />
    <trip id="38" depart="225.0" from="ce6" to="ce7" type="standard_car" departLane="random" departSpeed="10" />
    <trip id="39" depart="229.0" from="ce8" to="ce5" type="standard_car" departLane="random" departSpeed="10" />
    <trip id="40" depart="232.0" from="ce8" to="ce2" type="standard_car" departLane="random" departSpeed="10" />
    <trip id="41" depart="235.0" from="ce8" to="ce7" type="standard_car" departLane="random" departSpeed="10" />
    <trip id="42" depart="251.0" from="ce8" to="ce2" type="standard_car" departLane="random" departSpeed="10" />
    <trip id="43" depart="265.0" from="ce6" to="ce2" type="standard_car" departLane="random" departSpeed="10" />
    <trip id="44" depart="272.0" from="ce8" to="ce4" type="standard_car" departLane="random" departSpeed="10" />
    <trip id="45" depart="283.0" from="ce8" to="ce5" type="standard_car" departLane="random" departSpeed="10" />
    <trip id="46" depart="285.0" from="ce8" to="ce5" type="standard_car" departLane="random" departSpeed="10" />
    <trip id="47" depart="288.0" from="ce6" to="ce2" type="standard_car" departLane="random" departSpeed="10" />
    <trip id="48" depart="294.0" from="ce8" to="ce5" type="standard_car" departLane="random" departSpeed="10" />
    <trip id="49" depart="307.0" from="ce8" to="ce5" type="standard_car" departLane="random" departSpeed="10" />
    <trip id="50" depart="318.0" from="ce8" to="ce7" type="standard_car" departLane="random" departSpeed="10" />
    <trip id="51" depart="342.0" from="ce8" to="ce5" type="standard_car" departLane="random" departSpeed="10" />
    <trip id="52" depart="344.0" from="ce8" to="ce2" type="standard_car" departLane="random" departSpeed="10" />
    <trip id="53" depart="353.0" from="ce3" to="ce5" type="standard_car" departLane="random" departSpeed="10" />
    <trip id="54" depart="360.0" from="ce8" to="ce2" type="standard_car" departLane="random" departSpeed="10" />
    <trip id="55" depart="362.0" from="ce8" to="ce5" type="standard_car" departLane="random" departSpeed="10" />
    <trip id="56" depart="369.0" from="ce8" to="ce7" type="standard_car" departLane="random" departSpeed="10" />
    <trip id="57" depart="373.0" from="ce1" to="ce5" type="standard_car" departLane="random" departSpeed="10" />
    <trip id="58" depart="383.0" from="ce8" to="ce2" type="standard_car" departLane="random" departSpeed="10" />
    <trip id="59" depart="394.0" from="ce8" to="ce5" type="standard_car" departLane="random" departSpeed="10" />
    <trip id="60" depart="413.0" from="ce8" to="ce5" type="standard_car" departLane="random" departSpeed="10" />
    <trip id="61" depart="414.0" from="ce8" to="ce2" type="standard_car" departLane="random" departSpeed="10" />
    <trip id="62" depart="414.0" from="ce3" to="ce7" type="standard_car" departLane="random" departSpeed="10" />
    <trip id="63" depart="459.0" from="ce1" to="ce4" type="standard_car" departLane="random" departSpeed="10" />
    <trip id="64" depart="462.0" from="ce8" to="ce4" type="standard_car" departLane="random" departSpeed="10" />
    <trip id="65" depart="465.0" from="ce8" to="ce2" type="standard_car" departLane="random" departSpeed="10" />
    <trip id="66" depart="467.0" from="ce6" to="ce2" type="standard_car" departLane="random" departSpeed="10" />
    <trip id="67" depart="477.0" from="ce8" to="ce2" type="standard_car" departLane="random" departSpeed="10" />
    <trip id="68" depart="477.0" from="ce8" to="ce5" type="standard_car" departLane="random" departSpeed="10" />
    <trip id="69" depart="491.0" from="ce3" to="ce2" type="standard_car" departLane="random" departSpeed="10" />
    <trip id="70" depart="492.0" from="ce8" to="ce2" type="standard_car" departLane="random" departSpeed="10" />
    <trip id="71" depart="493.0" from="ce8" to="ce4" type="standard_car" departLane="random" departSpeed="10" />
    <trip id="72" depart="509.0" from="ce8" to="ce5" type="standard_car" departLane="random" departSpeed="10" />
    <trip id="73" depart="514.0" from="ce8" to="ce7" type="standard_car" departLane="random" departSpeed="10" />
    <trip id="74" depart="543.0" from="ce8" to="ce4" type="standard_car" departLane="random" departSpeed="10" />
    <trip id="75" depart="544.0" from="ce6" to="ce4" type="standard_car" departLane="random" departSpeed="10" />
    <trip id="76" depart="548.0" from="ce8" to="ce4" type="standard_car" departLane="random" departSpeed="10" />
    <trip id="77" depart="560.0" from="ce3" to="ce2" type="standard_car" departLane="random" departSpeed="10" />
    <trip id="78" depart="565.0" from="ce8" to="ce4" type="standard_car" departLane="random" departSpeed="10" />
    <trip id="79" depart="565.0" from="ce8" to="ce7" type="standard_car" departLane="random" departSpeed="10" />
    <trip id="80" depart="570.0" from="ce8" to="ce5" type="standard_car" departLane="random" departSpeed="10" />
    <trip id="81" depart="572.0" from="ce8" to="ce4" type="standard_car" departLane="random" departSpeed="10" />
    <trip id="82" depart="581.0" from="ce8" to="ce4" type="standard_car" departLane="random" departSpeed="10" />
    <trip id="83" depart="595.0" from="ce1" to="ce7" type="standard_car" departLane="random" departSpeed="10" />
    <trip id="84" depart="598.0" from="ce3" to="ce7" type="standard_car" departLane="random" departSpeed="10" />
    <trip id="85" depart="602.0" from="ce8" to="ce4" type="standard_car" departLane="random" departSpeed="10" />
    <trip id="86" depart="602.0" from="ce8" to="ce2" type="standard_car" departLane="random" departSpeed="10" />
    <trip id="87" depart="611.0" from="ce8" to="ce4" type="standard_car" departLane="random" departSpeed="10" />
    <trip id="88" depart="611.0" from="ce8" to="ce4" type="standard_car" departLane="random" departSpeed="10" />
    <trip id="89" depart="612.0" from="ce8" to="ce4" type="standard_car" departLane="random" departSpeed="10" />
    <trip id="90" depart="617.0" from="ce6" to="ce2" type="standard_car" departLane="random" departSpeed="10" />
    <trip id="91" depart="620.0" from="ce8" to="ce2" type="standard_car" departLane="random" departSpeed="10" />
    <trip id="92" depart="640.0" from="ce1" to="ce4" type="standard_car" departLane="random" departSpeed="10" />
    <trip id="93" depart="641.0" from="ce8" to="ce4" type="standard_car" departLane="random" departSpeed="10" />
    <trip id="94" depart="642.0" from="ce8" to="ce2" type="standard_car" departLane="random" departSpeed="10" />
    <trip id="95" depart="645.0" from="ce8" to="ce4" type="standard_car" departLane="random" departSpeed="10" />
    <trip id="96" depart="657.0" from="ce6" to="ce7" type="standard_car" departLane="random" departSpeed="10" />
    <trip id="97" depart="669.0" from="ce8" to="ce5" type="standard_car" departLane="random" departSpeed="10" />
    <trip id="98" depart="671.0" from="ce8" to="ce4" type="standard_car" departLane="random" departSpeed="10" />
    <trip id="99" depart="687.0" from="ce3" to="ce2" type="standard_car" departLane="random" departSpeed="10" />
    <trip id="100" depart="688.0" from="ce1" to="ce4" type="standard_car" departLane="random" departSpeed="10" />
    <trip id="101" depart="696.0" from="ce1" to="ce5" type="standard_car" departLane="random" departSpeed="10" />
    <trip id="102" depart="709.0" from="ce6" to="ce7" type="standard_car" departLane="random" departSpeed="10" />
    <trip id="103" depart="711.0" from="ce8" to="ce5" type="standard_car" departLane="random" departSpeed="10" />
    <trip id="104" depart="715.0" from="ce8" to="ce5" type="standard_car" departLane="random" departSpeed="10" />
    <trip id="105" depart="718.0" from="ce8" to="ce5" type="standard_car" departLane="random" departSpeed="10" />
    <trip id="106" depart="729.0" from="ce8" to="ce7" type="standard_car" departLane="random" departSpeed="10" />
    <trip id="107" depart="747.0" from="ce8" to="ce4" type="standard_car" departLane="random" departSpeed="10" />
    <trip id="108" depart="752.0" from="ce8" to="ce2" type="standard_car" departLane="random" departSpeed="10" />
    <trip id="109" depart="753.0" from="ce8" to="ce5" type="standard_car" departLane="random" departSpeed="10" />
    <trip id="110" depart="760.0" from="ce8" to="ce2" type="standard_car" departLane="random" departSpeed="10" />
    <trip id="111" depart="761.0" from="ce8" to="ce7" type="standard_car" departLane="random" departSpeed="10" />
    <trip id="112" depart="763.0" from="ce8" to="ce2" type="standard_car" departLane="random" departSpeed="10" />
    <trip id="113" depart="788.0" from="ce3" to="ce2" type="standard_car" departLane="random" departSpeed="10" />
    <trip id="114" depart="791.0" from="ce8" to="ce5" type="standard_car" departLane="random" departSpeed="10" />
    <trip id="115" depart="793.0" from="ce8" to="ce7" type="standard_car" departLane="random" departSpeed="10" />
    <trip id="116" depart="797.0" from="ce8" to="ce2" type="standard_car" departLane="random" departSpeed="10" />
    <trip id="117" depart="800.0" from="ce8" to="ce4" type="standard_car" departLane="random" departSpeed="10" />
    <trip id="118" depart="808.0" from="ce6" to="ce2" type="standard_car" departLane="random" departSpeed="10" />
    <trip id="119" depart="817.0" from="ce3" to="ce7" type="standard_car" departLane="random" departSpeed="10" />
    <trip id="120" depart="821.0" from="ce1" to="ce5" type="standard_car" departLane="random" departSpeed="10" />
    <trip id="121" depart="828.0" from="ce3" to="ce2" type="standard_car" departLane="random" departSpeed="10" />
    <trip id="122" depart="829.0" from="ce8" to="ce5" type="standard_car" departLane="random" departSpeed="10" />
    <trip id="123" depart="858.0" from="ce8" to="ce4" type="standard_car" departLane="random" departSpeed="10" />
    <trip id="124" depart="868.0" from="ce8" to="ce4" type="standard_car" departLane="random" departSpeed="10" />
    <trip id="125" depart="872.0" from="ce8" to="ce2" type="standard_car" departLane="random" departSpeed="10" />
    <trip id="126" depart="895.0" from="ce8" to="ce5" type="standard_car" departLane="random" departSpeed="10" />
    <trip id="127" depart="903.0" from="ce8" to="ce4" type="standard_car" departLane="random" departSpeed="10" />
    <trip id="128" depart="926.0" from="ce8" to="ce2" type="standard_car" departLane="random" departSpeed="10" />
    <trip id="129" depart="936.0" from="ce6" to="ce5" type="standard_car" departLane="random" departSpeed="10" />
    <trip id="130" depart="946.0" from="ce8" to="ce2" type="standard_car" departLane="random" departSpeed="10" />
    <trip id="131" depart="946.0" from="ce8" to="ce5" type="standard_car" departLane="random" departSpeed="10" />
    <trip id="132" depart="951.0" from="ce8" to="ce4" type="standard_car" departLane="random" departSpeed="10" />
    <trip id="133" depart="959.0" from="ce3" to="ce7" type="standard_car" departLane="random" departSpeed="10" />
    <trip id="134" depart="988.0" from="ce8" to="ce7" type="standard_car" departLane="random" departSpeed="10" />
    <trip id="135" depart="1021.0" from="ce8" to="ce4" type="standard_car" departLane="random" departSpeed="10" />
    <trip id="136" depart="1027.0" from="ce8" to="ce7" type="standard_car" departLane="random" departSpeed="10" />
    <trip id="137" depart="1029.0" from="ce8" to="ce2" type="standard_car" departLane="random" departSpeed="10" />
    <trip id="138" depart="1034.0" from="ce1" to="ce4" type="standard_car" departLane="random" departSpeed="10" />
    <trip id="139" depart="1052.0" from="ce8" to="ce2" type="standard_car" departLane="random" departSpeed="10" />
    <trip id="140" depart="1058.0" from="ce8" to="ce4" type="standard_car" departLane="random" departSpeed="10" />
    <trip id="141" depart="1062.0" from="ce6" to="ce4" type="standard_car" departLane="random" departSpeed="10" />
    <trip id="142" depart="1065.0" from="ce8" to="ce7" type="standard_car" departLane="random" departSpeed="10" />
    <trip id="143" depart="1066.0" from="ce8" to="ce2" type="standard_car" departLane="random" departSpeed="10" />
    <trip id="144" depart="1096.0" from="ce1" to="ce4" type="standard_car" departLane="random" departSpeed="10" />
    <trip id="145" depart="1116.0" from="ce3" to="ce2" type="standard_car" departLane="random" departSpeed="10" />
    <trip id="146" depart="1117.0" from="ce8" to="ce2" type="standard_car" departLane="random" departSpeed="10" />
    <trip id="147" depart="1121.0" from="ce8" to="ce2" type="standard_car" departLane="random" departSpeed="10" />
    <trip id="148" depart="1123.0" from="ce8" to="ce4" type="standard_car" departLane="random" departSpeed="10" />
    <trip id="149" depart="1127.0" from="ce1" to="ce7" type="standard_car" departLane="random" departSpeed="10" />
    <trip id="150" depart="1151.0" from="ce8" to="ce2" type="standard_car" departLane="random" departSpeed="10" />
    <trip id="151" depart="1154.0" from="ce1" to="ce2" type="standard_car" departLane="random" departSpeed="10" />
    <trip id="152" depart="1157.0" from="ce8" to="ce2" type="standard_car" departLane="random" departSpeed="10" />
    <trip id="153" depart="1160.0" from="ce1" to="ce4" type="standard_car" departLane="random" departSpeed="10" />
    <trip id="154" depart="1172.0" from="ce8" to="ce2" type="standard_car" departLane="random" departSpeed="10" />
    <trip id="155" depart="1186.0" from="ce8" to="ce5" type="standard_car" departLane="random" departSpeed="10" />
    <trip id="156" depart="1189.0" from="ce1" to="ce7" type="standard_car" departLane="random" departSpeed="10" />
    <trip id="157" depart="1194.0" from="ce6" to="ce2" type="standard_car" departLane="random" departSpeed="10" />
    <trip id="158" depart="1195.0" from="ce1" to="ce4" type="standard_car" departLane="random" departSpeed="10" />
    <trip id="159" depart="1200.0" from="ce8" to="ce4" type="standard_car" departLane="random" departSpeed="10" />
    <trip id="160" depart="1212.0" from="ce8" to="ce5" type="standard_car" departLane="random" departSpeed="10" />
    <trip id="161" depart="1222.0" from="ce1" to="ce5" type="standard_car" departLane="random" departSpeed="10" />
    <trip id="162" depart="1228.0" from="ce8" to="ce4" type="standard_car" departLane="random" departSpeed="10" />
    <trip id="163" depart="1228.0" from="ce8" to="ce5" type="standard_car" departLane="random" departSpeed="10" />
    <trip id="164" depart="1234.0" from="ce6" to="ce2" type="standard_car" departLane="random" departSpeed="10" />
    <trip id="165" depart="1236.0" from="ce8" to="ce4" type="standard_car" departLane="random" departSpeed="10" />
    <trip id="166" depart="1240.0" from="ce8" to="ce5" type="standard_car" departLane="random" departSpeed="10" />
    <trip id="167" depart="1254.0" from="ce1" to="ce7" type="standard_car" departLane="random" departSpeed="10" />
    <trip id="168" depart="1261.0" from="ce6" to="ce7" type="standard_car" departLane="random" departSpeed="10" />
    <trip id="169" depart="1270.0" from="ce8" to="ce2" type="standard_car" departLane="random" departSpeed="10" />
    <trip id="170" depart="1281.0" from="ce8" to="ce4" type="standard_car" departLane="random" departSpeed="10" />
    <trip id="171" depart="1282.0" from="ce8" to="ce5" type="standard_car" departLane="random" departSpeed="10" />
    <trip id="172" depart="1302.0" from="ce8" to="ce2" type="standard_car" departLane="random" departSpeed="10" />
    <trip id="173" depart="1313.0" from="ce8" to="ce5" type="standard_car" departLane="random" departSpeed="10" />
    <trip id="174" depart="1315.0" from="ce8" to="ce4" type="standard_car" departLane="random" departSpeed="10" />
    <trip id="175" depart="1324.0" from="ce8" to="ce4" type="standard_car" departLane="random" departSpeed="10" />
    <trip id="176" depart="1337.0" from="ce8" to="ce7" type="standard_car" departLane="random" departSpeed="10" />
    <trip id="177" depart="1340.0" from="ce3" to="ce7" type="standard_car" departLane="random" departSpeed="10" />
    <trip id="178" depart="1345.0" from="ce8" to="ce2" type="standard_car" departLane="random" departSpeed="10" />
    <trip id="179" depart="1349.0" from="ce8" to="ce2" type="standard_car" departLane="random" departSpeed="10" />
    <trip id="180" depart="1360.0" from="ce8" to="ce2" type="standard_car" departLane="random" departSpeed="10" />
    <trip id="181" depart="1362.0" from="ce8" to="ce7" type="standard_car" departLane="random" departSpeed="10" />
    <trip id="182" depart="1373.0" from="ce1" to="ce5" type="standard_car" departLane="random" departSpeed="10" />
    <trip id="183" depart="1384.0" from="ce8" to="ce2" type="standard_car" departLane="random" departSpeed="10" />
    <trip id="184" depart="1391.0" from="ce3" to="ce2" type="standard_car" departLane="random" departSpeed="10" />
    <trip id="185" depart="1392.0" from="ce1" to="ce5" type="standard_car" departLane="random" departSpeed="10" />
    <trip id="186" depart="1408.0" from="ce8" to="ce2" type="standard_car" departLane="random" departSpeed="10" />
    <trip id="187" depart="1412.0" from="ce8" to="ce5" type="standard_car" departLane="random" departSpeed="10" />
    <trip id="188" depart="1415.0" from="ce6" to="ce7" type="standard_car" departLane="random" departSpeed="10" />
    <trip id="189" depart="1427.0" from="ce8" to="ce4" type="standard_car" departLane="random" departSpeed="10" />
    <trip id="190" depart="1435.0" from="ce8" to="ce7" type="standard_car" departLane="random" departSpeed="10" />
    <trip id="191" depart="1450.0" from="ce8" to="ce2" type="standard_car" departLane="random" departSpeed="10" />
    <trip id="192" depart="1455.0" from="ce8" to="ce5" type="standard_car" departLane="random" departSpeed="10" />
    <trip id="193" depart="1465.0" from="ce8" to="ce5" type="standard_car" departLane="random" departSpeed="10" />
    <trip id="194" depart="1481.0" from="ce3" to="ce4" type="standard_car" departLane="random" departSpeed="10" />
    <trip id="195" depart="1481.0" from="ce8" to="ce4" type="standard_car" departLane="random" departSpeed="10" />
    <trip id="196" depart="1483.0" from="ce8" to="ce5" type="standard_car" departLane="random" departSpeed="10" />
    <trip id="197" depart="1489.0" from="ce8" to="ce7" type="standard_car" departLane="random" departSpeed="10" />
    <trip id="198" depart="1522.0" from="ce8" to="ce4" type="standard_car" departLane="random" departSpeed="10" />
    <trip id="199" depart="1526.0" from="ce1" to="ce4" type="standard_car" departLane="random" departSpeed="10" />
    <trip id="200" depart="1531.0" from="ce8" to="ce2" type="standard_car" departLane="random" departSpeed="10" />
    <trip id="201" depart="1543.0" from="ce8" to="ce5" type="standard_car" departLane="random" departSpeed="10" />
    <trip id="202" depart="1543.0" from="ce1" to="ce2" type="standard_car" departLane="random" departSpeed="10" />
    <trip id="203" depart="1546.0" from="ce8" to="ce5" type="standard_car" departLane="random" departSpeed="10" />
    <trip id="204" depart="1564.0" from="ce8" to="ce4" type="standard_car" departLane="random" departSpeed="10" />
    <trip id="205" depart="1583.0" from="ce8" to="ce5" type="standard_car" departLane="random" departSpeed="10" />
    <trip id="206" depart="1586.0" from="ce8" to="ce4" type="standard_car" departLane="random" departSpeed="10" />
    <trip id="207" depart="1588.0" from="ce6" to="ce2" type="standard_car" departLane="random" departSpeed="10" />
    <trip id="208" depart="1592.0" from="ce1" to="ce5" type="standard_car" departLane="random" departSpeed="10" />
    <trip id="209" depart="1599.0" from="ce1" to="ce2" type="standard_car" departLane="random" departSpeed="10" />
    <trip id="210" depart="1609.0" from="ce8" to="ce4" type="standard_car" departLane="random" departSpeed="10" />
    <trip id="211" depart="1618.0" from="ce6" to="ce4" type="standard_car" departLane="random" departSpeed="10" />
    <trip id="212" depart="1623.0" from="ce6" to="ce7" type="standard_car" departLane="random" departSpeed="10" />
    <trip id="213" depart="1625.0" from="ce8" to="ce5" type="standard_car" departLane="random" departSpeed="10" />
    <trip id="214" depart="1630.0" from="ce8" to="ce4" type="standard_car" departLane="random" departSpeed="10" />
    <trip id="215" depart="1645.0" from="ce8" to="ce2" type="standard_car" departLane="random" departSpeed="10" />
    <trip id="216" depart="1659.0" from="ce1" to="ce7" type="standard_car" departLane="random" departSpeed="10" />
    <trip id="217" depart="1659.0" from="ce1" to="ce7" type="standard_car" departLane="random" departSpeed="10" />
    <trip id="218" depart="1660.0" from="ce8" to="ce4" type="standard_car" departLane="random" departSpeed="10" />
    <trip id="219" depart="1665.0" from="ce8" to="ce2" type="standard_car" departLane="random" departSpeed="10" />
    <trip id="220" depart="1674.0" from="ce1" to="ce4" type="standard_car" departLane="random" departSpeed="10" />
    <trip id="221" depart="1676.0" from="ce1" to="ce7" type="standard_car" departLane="random" departSpeed="10" />
    <trip id="222" depart="1690.0" from="ce3" to="ce7" type="standard_car" departLane="random" departSpeed="10" />
    <trip id="223" depart="1692.0" from="ce1" to="ce2" type="standard_car" departLane="random" departSpeed="10" />
    <trip id="224" depart="1702.0" from="ce8" to="ce4" type="standard_car" departLane="random" departSpeed="10" />
    <trip id="225" depart="1706.0" from="ce8" to="ce4" type="standard_car" departLane="random" departSpeed="10" />
    <trip id="226" depart="1707.0" from="ce8" to="ce4" type="standard_car" departLane="random" departSpeed="10" />
    <trip id="227" depart="1712.0" from="ce8" to="ce4" type="standard_car" departLane="random" departSpeed="10" />
    <trip id="228" depart="1741.0" from="ce8" to="ce4" type="standard_car" departLane="random" departSpeed="10" />
    <trip id="229" depart="1751.0" from="ce1" to="ce7" type="standard_car" departLane="random" departSpeed="10" />
    <trip id="230" depart="1770.0" from="ce1" to="ce4" type="standard_car" departLane="random" departSpeed="10" />
    <trip id="231" depart="1774.0" from="ce1" to="ce4" type="standard_car" departLane="random" departSpeed="10" />
    <trip id="232" depart="1775.0" from="ce8" to="ce5" type="standard_car" departLane="random" departSpeed="10" />
    <trip id="233" depart="1780.0" from="ce1" to="ce5" type="standard_car" departLane="random" departSpeed="10" />
    <trip id="234" depart="1784.0" from="ce8" to="ce4" type="standard_car" departLane="random" departSpeed="10" />
    <trip id="235" depart="1791.0" from="ce8" to="ce5" type="standard_car" departLane="random" departSpeed="10" />
    <trip id="236" depart="1793.0" from="ce1" to="ce4" type="standard_car" departLane="random" departSpeed="10" />
    <trip id="237" depart="1807.0" from="ce8" to="ce4" type="standard_car" departLane="random" departSpeed="10" />
    <trip id="238" depart="1807.0" from="ce8" to="ce4" type="standard_car" departLane="random" departSpeed="10" />
    <trip id="239" depart="1817.0" from="ce1" to="ce4" type="standard_car" departLane="random" departSpeed="10" />
    <trip id="240" depart="1828.0" from="ce8" to="ce2" type="standard_car" departLane="random" departSpeed="10" />
    <trip id="241" depart="1831.0" from="ce8" to="ce4" type="standard_car" departLane="random" departSpeed="10" />
    <trip id="242" depart="1841.0" from="ce8" to="ce7" type="standard_car" departLane="random" departSpeed="10" />
    <trip id="243" depart="1844.0" from="ce8" to="ce2" type="standard_car" departLane="random" departSpeed="10" />
    <trip id="244" depart="1844.0" from="ce3" to="ce2" type="standard_car" departLane="random" departSpeed="10" />
    <trip id="245" depart="1853.0" from="ce8" to="ce5" type="standard_car" departLane="random" departSpeed="10" />
    <trip id="246" depart="1867.0" from="ce8" to="ce2" type="standard_car" departLane="random" departSpeed="10" />
    <trip id="247" depart="1869.0" from="ce6" to="ce7" type="standard_car" departLane="random" departSpeed="10" />
    <trip id="248" depart="1871.0" from="ce8" to="ce4" type="standard_car" departLane="random" departSpeed="10" />
    <trip id="249" depart="1883.0" from="ce3" to="ce7" type="standard_car" departLane="random" departSpeed="10" />
    <trip id="250" depart="1888.0" from="ce8" to="ce4" type="standard_car" departLane="random" departSpeed="10" />
    <trip id="251" depart="1899.0" from="ce8" to="ce4" type="standard_car" departLane="random" departSpeed="10" />
    <trip id="252" depart="1901.0" from="ce8" to="ce4" type="standard_car" departLane="random" departSpeed="10" />
    <trip id="253" depart="1904.0" from="ce6" to="ce4" type="standard_car" departLane="random" departSpeed="10" />
    <trip id="254" depart="1906.0" from="ce8" to="ce2" type="standard_car" departLane="random" departSpeed="10" />
    <trip id="255" depart="1907.0" from="ce8" to="ce2" type="standard_car" departLane="random" departSpeed="10" />
    <trip id="256" depart="1908.0" from="ce1" to="ce5" type="standard_car" departLane="random" departSpeed="10" />
    <trip id="257" depart="1908.0" from="ce8" to="ce4" type="standard_car" departLane="random" departSpeed="10" />
    <trip id="258" depart="1921.0" from="ce8" to="ce4" type="standard_car" departLane="random" departSpeed="10" />
    <trip id="259" depart="1927.0" from="ce8" to="ce4" type="standard_car" departLane="random" departSpeed="10" />
    <trip id="260" depart="1940.0" from="ce8" to="ce4" type="standard_car" departLane="random" departSpeed="10" />